@<TRIPOS>MOLECULE
ZINC00002103
   41    42     0     0     0
SMALL
USER_CHARGES

@<TRIPOS>ATOM
      1 C1          4.3970   -4.9202   -8.6181 C.3       1 <0>        -0.2427
      2 C2          3.3224   -3.8317   -8.5834 C.3       1 <0>         0.0236
      3 C3          2.8212   -3.5643  -10.0040 C.3       1 <0>        -0.2082
      4 O1          2.2321   -4.2645   -7.7672 O.3       1 <0>        -0.2045
      5 C4          2.3423   -4.0561   -6.4308 C.ar      1 <0>         0.1330
      6 C5          3.5242   -3.5492   -5.9034 C.ar      1 <0>        -0.2405
      7 C6          3.6402   -3.3368   -4.5478 C.ar      1 <0>        -0.0194
      8 C7          2.5675   -3.6311   -3.7022 C.ar      1 <0>        -0.1838
      9 C8          1.3829   -4.1456   -4.2356 C.ar      1 <0>        -0.0592
     10 C9          1.2728   -4.3498   -5.5930 C.ar      1 <0>        -0.1722
     11 C10         2.6875   -3.4049   -2.2485 C.2       1 <0>         0.3792
     12 O2          3.7208   -2.9619   -1.7855 O.2       1 <0>        -0.3388
     13 N1          1.6518   -3.6895   -1.4344 N.am      1 <0>        -0.8273
     14 S1          1.7864   -3.4357    0.1964 S.o2      1 <0>         2.7549
     15 O3          3.0123   -4.0301    0.6001 O.2       1 <0>        -0.8873
     16 O4          0.5380   -3.8006    0.7687 O.2       1 <0>        -0.9191
     17 C11         1.9641   -1.6997    0.4406 C.ar      1 <0>        -0.8172
     18 C12         0.8430   -0.9096    0.6173 C.ar      1 <0>         0.0155
     19 C13         0.9787    0.4513    0.8089 C.ar      1 <0>        -0.2356
     20 C14         2.2431    1.0263    0.8241 C.ar      1 <0>         0.1706
     21 C15         3.3672    0.2296    0.6471 C.ar      1 <0>        -0.2353
     22 C16         3.2243   -1.1306    0.4555 C.ar      1 <0>         0.0407
     23 N2          2.3839    2.4024    1.0176 N.pl3     1 <0>        -0.4092
     24 H1          4.7540   -5.1107   -7.6060 H         1 <0>         0.0866
     25 H2          3.9739   -5.8354   -9.0324 H         1 <0>         0.0933
     26 H3          5.2286   -4.5901   -9.2406 H         1 <0>         0.0853
     27 H4          3.7455   -2.9166   -8.1691 H         1 <0>         0.0884
     28 H5          2.0557   -2.7888   -9.9793 H         1 <0>         0.0871
     29 H6          3.6528   -3.2342  -10.6266 H         1 <0>         0.0884
     30 H7          2.3981   -4.4794  -10.4183 H         1 <0>         0.0907
     31 H8          4.3529   -3.3219   -6.5577 H         1 <0>         0.1463
     32 H9          4.5589   -2.9428   -4.1389 H         1 <0>         0.1576
     33 H10         0.5531   -4.3786   -3.5847 H         1 <0>         0.1301
     34 H11         0.3559   -4.7429   -6.0066 H         1 <0>         0.1492
     35 H12         0.8274   -4.0429   -1.8038 H         1 <0>         0.2513
     36 H13        -0.1398   -1.3573    0.6051 H         1 <0>         0.1440
     37 H14         0.1025    1.0684    0.9425 H         1 <0>         0.1333
     38 H15         4.3517    0.6735    0.6587 H         1 <0>         0.1362
     39 H16         4.0978   -1.7506    0.3176 H         1 <0>         0.1683
     40 H17         1.5983    2.9577    1.1417 H         1 <0>         0.2227
     41 H18         3.2674    2.8028    1.0280 H         1 <0>         0.2239
@<TRIPOS>BOND
     1    1    2 1
     2    1   24 1
     3    1   25 1
     4    1   26 1
     5    2    3 1
     6    2    4 1
     7    2   27 1
     8    3   28 1
     9    3   29 1
    10    3   30 1
    11    4    5 1
    12    5   10 ar
    13    5    6 ar
    14    6    7 ar
    15    6   31 1
    16    7    8 ar
    17    7   32 1
    18    8    9 ar
    19    8   11 1
    20    9   10 ar
    21    9   33 1
    22   10   34 1
    23   11   12 2
    24   11   13 am
    25   13   14 1
    26   13   35 1
    27   14   15 2
    28   14   16 2
    29   14   17 1
    30   17   22 ar
    31   17   18 ar
    32   18   19 ar
    33   18   36 1
    34   19   20 ar
    35   19   37 1
    36   20   21 ar
    37   20   23 1
    38   21   22 ar
    39   21   38 1
    40   22   39 1
    41   23   40 1
    42   23   41 1
@<TRIPOS>MOLECULE
ZINC00002112
   39    41     0     0     0
SMALL
USER_CHARGES

@<TRIPOS>ATOM
      1 C1          1.6727    5.8328    2.8040 C.3       1 <0>        -0.1353
      2 C2          0.5331    4.8524    2.9108 C.2       1 <0>        -0.0517
      3 C3         -0.0249    4.1301    1.8520 C.2       1 <0>        -0.3267
      4 C4         -1.0292    3.3602    2.3550 C.2       1 <0>         0.1291
      5 N1         -1.0878    3.5910    3.6950 N.pl3     1 <0>        -0.1109
      6 N2         -0.0972    4.5295    4.0112 N.2       1 <0>        -0.0759
      7 C5         -1.9800    2.9959    4.5974 C.ar      1 <0>         0.0833
      8 C6         -3.2789    2.7053    4.2020 C.ar      1 <0>        -0.1635
      9 C7         -4.1540    2.1136    5.0917 C.ar      1 <0>        -0.1088
     10 C8         -3.7412    1.8210    6.3787 C.ar      1 <0>        -0.1354
     11 C9         -2.4500    2.1144    6.7771 C.ar      1 <0>        -0.1110
     12 C10        -1.5685    2.7009    5.8902 C.ar      1 <0>        -0.1187
     13 N3         -1.8425    2.4922    1.6324 N.pl3     1 <0>        -0.7934
     14 S1         -1.7999    2.5029   -0.0230 S.o2      1 <0>         2.7685
     15 O1         -2.7632    1.5541   -0.4602 O.2       1 <0>        -0.9100
     16 O2         -0.4306    2.4247   -0.3946 O.2       1 <0>        -0.9026
     17 C11        -2.3750    4.0832   -0.5488 C.ar      1 <0>        -0.8193
     18 C12        -3.7315    4.3122   -0.6886 C.ar      1 <0>         0.0202
     19 C13        -4.1854    5.5479   -1.1061 C.ar      1 <0>        -0.2306
     20 C14        -3.2775    6.5614   -1.3856 C.ar      1 <0>         0.1730
     21 C15        -1.9155    6.3280   -1.2440 C.ar      1 <0>        -0.2296
     22 C16        -1.4684    5.0900   -0.8261 C.ar      1 <0>         0.0255
     23 N4         -3.7331    7.8125   -1.8075 N.pl3     1 <0>        -0.4065
     24 H1          2.6180    5.3073    2.9392 H         1 <0>         0.0956
     25 H2          1.6560    6.3036    1.8210 H         1 <0>         0.0870
     26 H3          1.5681    6.5967    3.5745 H         1 <0>         0.0927
     27 H4          0.2840    4.1763    0.8182 H         1 <0>         0.1785
     28 H5         -3.6033    2.9379    3.1985 H         1 <0>         0.1368
     29 H6         -5.1630    1.8829    4.7833 H         1 <0>         0.1363
     30 H7         -4.4286    1.3621    7.0739 H         1 <0>         0.1343
     31 H8         -2.1305    1.8851    7.7830 H         1 <0>         0.1379
     32 H9         -0.5600    2.9295    6.2019 H         1 <0>         0.1562
     33 H10        -2.4342    1.8810    2.0984 H         1 <0>         0.2572
     34 H11        -4.4369    3.5236   -0.4715 H         1 <0>         0.1439
     35 H12        -5.2450    5.7259   -1.2155 H         1 <0>         0.1358
     36 H13        -1.2070    7.1138   -1.4608 H         1 <0>         0.1365
     37 H14        -0.4096    4.9079   -0.7155 H         1 <0>         0.1522
     38 H15        -3.0982    8.5196   -2.0020 H         1 <0>         0.2250
     39 H16        -4.6845    7.9743   -1.9060 H         1 <0>         0.2246
@<TRIPOS>BOND
     1    1    2 1
     2    1   24 1
     3    1   25 1
     4    1   26 1
     5    2    6 2
     6    2    3 1
     7    3    4 2
     8    3   27 1
     9    4    5 1
    10    4   13 1
    11    5    6 1
    12    5    7 1
    13    7   12 ar
    14    7    8 ar
    15    8    9 ar
    16    8   28 1
    17    9   10 ar
    18    9   29 1
    19   10   11 ar
    20   10   30 1
    21   11   12 ar
    22   11   31 1
    23   12   32 1
    24   13   14 1
    25   13   33 1
    26   14   15 2
    27   14   16 2
    28   14   17 1
    29   17   22 ar
    30   17   18 ar
    31   18   19 ar
    32   18   34 1
    33   19   20 ar
    34   19   35 1
    35   20   21 ar
    36   20   23 1
    37   21   22 ar
    38   21   36 1
    39   22   37 1
    40   23   38 1
    41   23   39 1
@<TRIPOS>MOLECULE
ZINC00006108
   41    44     0     0     0
SMALL
USER_CHARGES

@<TRIPOS>ATOM
      1 C1         11.3968    7.1647   -0.3501 C.ar      1 <0>        -0.1173
      2 C2         10.9741    6.8845    0.9359 C.ar      1 <0>        -0.1300
      3 C3         10.3833    5.6674    1.2195 C.ar      1 <0>        -0.1087
      4 C4         10.2156    4.7303    0.2172 C.ar      1 <0>        -0.1137
      5 C5         10.6435    5.0083   -1.0676 C.ar      1 <0>        -0.1086
      6 C6         11.2291    6.2276   -1.3524 C.ar      1 <0>        -0.1300
      7 C7          9.5720    3.4032    0.5264 C.3       1 <0>         0.0390
      8 N1          8.1232    3.5068    0.3352 N.am      1 <0>        -0.3740
      9 C8          7.3361    2.4351    0.5551 C.2       1 <0>         0.3869
     10 O1          7.8282    1.3827    0.9121 O.2       1 <0>        -0.3269
     11 C9          5.8718    2.5398    0.3618 C.2       1 <0>        -0.0613
     12 N2          4.9923    1.5463    0.5490 N.2       1 <0>        -0.1684
     13 C10         3.7765    1.9786    0.2903 C.2       1 <0>         0.0659
     14 C11         2.4543    1.3395    0.3268 C.2       1 <0>        -0.1220
     15 C12         1.3827    2.0744   -0.0000 C.2       1 <0>         0.0494
     16 N3          1.5507    3.3955   -0.3626 N.am      1 <0>        -0.2931
     17 H1          0.7459    3.9363   -0.6072 H         1 <0>         0.2767
     18 C13         2.7589    3.9774   -0.3975 C.2       1 <0>         0.4193
     19 O2          2.8498    5.1450   -0.7246 O.2       1 <0>        -0.3351
     20 N4          3.8689    3.2945   -0.0775 N.am      1 <0>        -0.1649
     21 N5          5.2292    3.6245   -0.0207 N.2       1 <0>        -0.0472
     22 C14        -0.0186    1.5231    0.0104 C.3       1 <0>        -0.1242
     23 C15         0.0021   -0.0041    0.0020 C.3       1 <0>        -0.1575
     24 C16         0.9414   -0.4782    1.1181 C.3       1 <0>        -0.1650
     25 C17         2.3712   -0.1074    0.7280 C.3       1 <0>        -0.0960
     26 H2         11.8577    8.1159   -0.5718 H         1 <0>         0.1311
     27 H3         11.1051    7.6167    1.7190 H         1 <0>         0.1325
     28 H4         10.0531    5.4485    2.2242 H         1 <0>         0.1349
     29 H5         10.5165    4.2744   -1.8497 H         1 <0>         0.1349
     30 H6         11.5591    6.4467   -2.3571 H         1 <0>         0.1325
     31 H7          9.7833    3.1289    1.5599 H         1 <0>         0.1009
     32 H8          9.9730    2.6406   -0.1412 H         1 <0>         0.1009
     33 H9          7.7304    4.3467    0.0503 H         1 <0>         0.2428
     34 H10        -0.5514    1.8798   -0.8711 H         1 <0>         0.0976
     35 H11        -0.5344    1.8703    0.9057 H         1 <0>         0.1069
     36 H12        -1.0030   -0.3863    0.1804 H         1 <0>         0.0931
     37 H13         0.3654   -0.3614   -0.9615 H         1 <0>         0.0952
     38 H14         0.6767    0.0126    2.0547 H         1 <0>         0.0892
     39 H15         0.8594   -1.5589    1.2334 H         1 <0>         0.0951
     40 H16         3.0321   -0.2832    1.5768 H         1 <0>         0.1157
     41 H17         2.6883   -0.7306   -0.1082 H         1 <0>         0.1037
@<TRIPOS>BOND
     1    1    6 ar
     2    1    2 ar
     3    1   26 1
     4    2    3 ar
     5    2   27 1
     6    3    4 ar
     7    3   28 1
     8    4    5 ar
     9    4    7 1
    10    5    6 ar
    11    5   29 1
    12    6   30 1
    13    7    8 1
    14    7   31 1
    15    7   32 1
    16    8    9 am
    17    8   33 1
    18    9   10 2
    19    9   11 1
    20   11   21 2
    21   11   12 1
    22   12   13 2
    23   13   20 1
    24   13   14 1
    25   14   25 1
    26   14   15 2
    27   15   16 1
    28   15   22 1
    29   16   17 1
    30   16   18 am
    31   18   19 2
    32   18   20 am
    33   20   21 1
    34   22   23 1
    35   22   34 1
    36   22   35 1
    37   23   24 1
    38   23   36 1
    39   23   37 1
    40   24   25 1
    41   24   38 1
    42   24   39 1
    43   25   40 1
    44   25   41 1
@<TRIPOS>MOLECULE
ZINC00011462
   41    43     0     0     0
SMALL
USER_CHARGES

@<TRIPOS>ATOM
      1 C1          2.2935    3.6524    1.2425 C.3       1 <0>        -0.1756
      2 C2          1.0830    3.0331    0.5928 C.ar      1 <0>        -0.0933
      3 C3         -0.1232    3.7056    0.5970 C.ar      1 <0>        -0.1392
      4 C4         -1.2376    3.1355   -0.0006 C.ar      1 <0>         0.0593
      5 C5         -1.1401    1.8916   -0.6075 C.ar      1 <0>        -0.1427
      6 C6          0.0638    1.2158   -0.6080 C.ar      1 <0>        -0.1093
      7 C7          1.1800    1.7860   -0.0098 C.ar      1 <0>         0.0495
      8 N1          2.4029    1.1037   -0.0149 N.am      1 <0>        -0.3200
      9 C8          2.4249   -0.2406    0.0794 C.2       1 <0>         0.3488
     10 O1          1.3828   -0.8666    0.0862 O.2       1 <0>        -0.3521
     11 C9          3.7162   -0.9539    0.1746 C.ar      1 <0>        -0.0967
     12 C10         4.9128   -0.2343    0.1668 C.ar      1 <0>        -0.1333
     13 C11         6.1157   -0.9065    0.2565 C.ar      1 <0>        -0.0832
     14 C12         6.1339   -2.2815    0.3533 C.ar      1 <0>        -0.1057
     15 C13         4.9531   -3.0153    0.3627 C.ar      1 <0>         0.0540
     16 C14         3.7381   -2.3429    0.2779 C.ar      1 <0>        -0.0961
     17 N2          5.2334   -4.3787    0.4675 N.am      1 <0>        -0.3083
     18 C15         6.5529   -4.6234    0.5312 C.2       1 <0>         0.3245
     19 O2          7.0798   -5.7117    0.6256 O.2       1 <0>        -0.3207
     20 C16         7.2586   -3.2860    0.4630 C.3       1 <0>        -0.0628
     21 C17         8.1602   -3.2180   -0.7713 C.3       1 <0>        -0.1866
     22 C18         8.0716   -3.0434    1.7362 C.3       1 <0>        -0.1866
     23 O3         -2.4247    3.7984    0.0036 O.3       1 <0>        -0.2904
     24 H1          2.8332    4.2512    0.5088 H         1 <0>         0.0810
     25 H2          1.9767    4.2889    2.0687 H         1 <0>         0.0911
     26 H3          2.9461    2.8652    1.6198 H         1 <0>         0.0790
     27 H4         -0.1988    4.6758    1.0653 H         1 <0>         0.1418
     28 H5         -2.0071    1.4503   -1.0765 H         1 <0>         0.1442
     29 H6          0.1386    0.2460   -1.0772 H         1 <0>         0.1685
     30 H7          3.2341    1.5985   -0.0863 H         1 <0>         0.2349
     31 H8          4.8976    0.8429    0.0906 H         1 <0>         0.1292
     32 H9          7.0437   -0.3541    0.2512 H         1 <0>         0.1385
     33 H10         2.8119   -2.8982    0.2880 H         1 <0>         0.1614
     34 H11         4.5535   -5.0702    0.4917 H         1 <0>         0.2485
     35 H12         8.5856   -2.2180   -0.8558 H         1 <0>         0.0816
     36 H13         8.9640   -3.9478   -0.6747 H         1 <0>         0.0956
     37 H14         7.5733   -3.4397   -1.6626 H         1 <0>         0.0847
     38 H15         7.4224   -3.1424    2.6062 H         1 <0>         0.0851
     39 H16         8.8766   -3.7756    1.7983 H         1 <0>         0.0956
     40 H17         8.4949   -2.0392    1.7112 H         1 <0>         0.0816
     41 H18        -2.5552    4.3763   -0.7607 H         1 <0>         0.2242
@<TRIPOS>BOND
     1    1    2 1
     2    1   24 1
     3    1   25 1
     4    1   26 1
     5    2    7 ar
     6    2    3 ar
     7    3    4 ar
     8    3   27 1
     9    4    5 ar
    10    4   23 1
    11    5    6 ar
    12    5   28 1
    13    6    7 ar
    14    6   29 1
    15    7    8 1
    16    8    9 am
    17    8   30 1
    18    9   10 2
    19    9   11 1
    20   11   16 ar
    21   11   12 ar
    22   12   13 ar
    23   12   31 1
    24   13   14 ar
    25   13   32 1
    26   14   20 1
    27   14   15 ar
    28   15   16 ar
    29   15   17 1
    30   16   33 1
    31   17   18 am
    32   17   34 1
    33   18   19 2
    34   18   20 1
    35   20   21 1
    36   20   22 1
    37   21   35 1
    38   21   36 1
    39   21   37 1
    40   22   38 1
    41   22   39 1
    42   22   40 1
    43   23   41 1
@<TRIPOS>MOLECULE
ZINC00011880
   40    42     0     0     0
SMALL
USER_CHARGES

@<TRIPOS>ATOM
      1 C1         -7.2254    9.7041    0.9478 C.3       1 <0>        -0.1978
      2 C2         -7.3359    8.3352    0.2734 C.3       1 <0>         0.0982
      3 C3         -6.1127    7.4882    0.6398 C.3       1 <0>         0.0108
      4 H1         -6.0157    7.4346    1.7242 H         1 <0>         0.0898
      5 C4         -6.3100    6.0728    0.0674 C.3       1 <0>         0.0998
      6 H2         -7.0349    5.5260    0.6705 H         1 <0>         0.1389
      7 C5         -6.8206    6.2213   -1.3292 C.2       1 <0>        -0.3968
      8 C6         -7.3307    7.3518   -1.8957 C.2       1 <0>         0.0740
      9 C7         -7.7465    7.2539   -3.2225 C.2       1 <0>        -0.1830
     10 C8         -7.6328    6.0743   -3.8788 C.2       1 <0>        -0.2948
     11 S1         -6.9158    5.0201   -2.6264 S.3       1 <0>         0.3857
     12 O1         -7.4082    8.5097   -1.1440 O.3       1 <0>        -0.1820
     13 N1         -5.0315    5.3576    0.0565 N.am      1 <0>        -0.3816
     14 C9         -5.0132    4.0100    0.0491 C.2       1 <0>         0.3431
     15 O2         -6.0575    3.3880    0.0514 O.2       1 <0>        -0.3461
     16 C10        -3.7229    3.2882    0.0380 C.ar      1 <0>        -0.0850
     17 C11        -3.7005    1.8927    0.0303 C.ar      1 <0>        -0.0747
     18 C12        -2.4931    1.2253    0.0205 C.ar      1 <0>        -0.0789
     19 C13        -1.3062    1.9364    0.0188 C.ar      1 <0>        -0.0907
     20 C14        -1.3214    3.3198    0.0321 C.ar      1 <0>        -0.0780
     21 C15        -2.5220    3.9995    0.0357 C.ar      1 <0>        -0.1149
     22 N2         -0.0144    1.2138    0.0087 N.pl3     1 <0>         0.5451
     23 O3          0.0021   -0.0041    0.0020 O.2       1 <0>        -0.3476
     24 O4          1.0320    1.8371    0.0021 O.3       1 <0>        -0.3505
     25 O5         -4.9371    8.0742    0.0771 O.3       1 <0>        -0.3218
     26 C16        -8.6022    7.6296    0.7627 C.3       1 <0>        -0.2443
     27 H3         -8.1010   10.3035    0.6987 H         1 <0>         0.0914
     28 H4         -7.1701    9.5732    2.0285 H         1 <0>         0.0835
     29 H5         -6.3264   10.2106    0.5967 H         1 <0>         0.1047
     30 H6         -8.1579    8.1162   -3.7260 H         1 <0>         0.1538
     31 H7         -7.9053    5.8332   -4.8957 H         1 <0>         0.1916
     32 H8         -4.1981    5.8540    0.0546 H         1 <0>         0.2218
     33 H9         -4.6263    1.3365    0.0324 H         1 <0>         0.1750
     34 H10        -2.4743    0.1455    0.0146 H         1 <0>         0.1726
     35 H11        -0.3914    3.8689    0.0354 H         1 <0>         0.1692
     36 H12        -2.5325    5.0794    0.0417 H         1 <0>         0.1392
     37 H13        -4.1261    7.5795    0.2574 H         1 <0>         0.2011
     38 H14        -8.6855    6.6561    0.2795 H         1 <0>         0.0960
     39 H15        -8.5490    7.4955    1.8431 H         1 <0>         0.0833
     40 H16        -9.4743    8.2344    0.5141 H         1 <0>         0.1000
@<TRIPOS>BOND
     1    1    2 1
     2    1   27 1
     3    1   28 1
     4    1   29 1
     5    2   12 1
     6    2    3 1
     7    2   26 1
     8    3    4 1
     9    3    5 1
    10    3   25 1
    11    5    6 1
    12    5    7 1
    13    5   13 1
    14    7   11 1
    15    7    8 2
    16    8    9 1
    17    8   12 1
    18    9   10 2
    19    9   30 1
    20   10   11 1
    21   10   31 1
    22   13   14 am
    23   13   32 1
    24   14   15 2
    25   14   16 1
    26   16   21 ar
    27   16   17 ar
    28   17   18 ar
    29   17   33 1
    30   18   19 ar
    31   18   34 1
    32   19   20 ar
    33   19   22 1
    34   20   21 ar
    35   20   35 1
    36   21   36 1
    37   22   23 2
    38   22   24 1
    39   25   37 1
    40   26   38 1
    41   26   39 1
    42   26   40 1
@<TRIPOS>MOLECULE
ZINC00013885
   45    48     0     0     0
SMALL
USER_CHARGES

@<TRIPOS>ATOM
      1 C1          1.2010   -0.0571    0.2102 C.2       1 <0>        -0.0463
      2 N1         -0.0069    0.4254    0.1822 N.2       1 <0>        -0.1384
      3 C2          0.0472    1.7663   -0.0097 C.ar      1 <0>        -0.2062
      4 C3          1.4039    2.1166   -0.1049 C.ar      1 <0>         0.1102
      5 N2          2.1078    0.9476    0.0373 N.pl3     1 <0>        -0.1687
      6 C4          3.5655    0.8045    0.0091 C.3       1 <0>         0.0601
      7 H1          3.9208    0.3612    0.9394 H         1 <0>         0.1091
      8 C5          3.9988   -0.0584   -1.1987 C.3       1 <0>        -0.1767
      9 C6          4.2961    1.0271   -2.2591 C.3       1 <0>        -0.0900
     10 H2          5.1485    0.7354   -2.8726 H         1 <0>         0.1116
     11 C7          4.6202    2.2672   -1.4589 C.2       1 <0>        -0.1198
     12 C8          4.2219    2.1462   -0.2189 C.2       1 <0>        -0.1808
     13 C9          3.0659    1.2657   -3.1370 C.3       1 <0>         0.0087
     14 O1          3.3924    2.1952   -4.1722 O.3       1 <0>        -0.3551
     15 N3          1.7322    3.3906   -0.2962 N.ar      1 <0>        -0.2965
     16 C10         0.7954    4.3199   -0.3961 C.ar      1 <0>         0.2491
     17 N4         -0.4974    4.0341   -0.3126 N.ar      1 <0>        -0.2992
     18 C11        -0.9139    2.7871   -0.1170 C.ar      1 <0>         0.0088
     19 S1         -2.6333    2.4205    0.0008 S.3       1 <0>         0.2639
     20 C12        -3.3237    4.0807   -0.2073 C.3       1 <0>        -0.1862
     21 H3         -2.8810    4.7510    0.5295 H         1 <0>         0.1323
     22 C13        -4.8386    4.0301    0.0027 C.3       1 <0>        -0.1465
     23 C14        -5.4335    5.3764   -0.4296 C.3       1 <0>        -0.1544
     24 C15        -5.2691    5.5137   -1.9447 C.3       1 <0>        -0.1303
     25 C16        -3.8544    5.2076   -2.3410 C.2       1 <0>        -0.1678
     26 C17        -3.0095    4.5807   -1.5869 C.2       1 <0>        -0.1501
     27 N5          1.1778    5.6363   -0.5952 N.pl3     1 <0>        -0.3785
     28 H4          1.4492   -1.0990    0.3490 H         1 <0>         0.2068
     29 H5          4.8946   -0.6345   -0.9668 H         1 <0>         0.1053
     30 H6          3.1889   -0.7114   -1.5237 H         1 <0>         0.1000
     31 H7          5.1163    3.1395   -1.8581 H         1 <0>         0.1527
     32 H8          4.3450    2.9032    0.5414 H         1 <0>         0.1562
     33 H9          2.7488    0.3227   -3.5822 H         1 <0>         0.0582
     34 H10         2.2575    1.6698   -2.5276 H         1 <0>         0.0761
     35 H11         2.6575    2.3939   -4.7684 H         1 <0>         0.2121
     36 H12        -5.2657    3.2298   -0.6016 H         1 <0>         0.0957
     37 H13        -5.0568    3.8543    1.0561 H         1 <0>         0.0905
     38 H14        -4.9060    6.1881    0.0713 H         1 <0>         0.0869
     39 H15        -6.4918    5.4127   -0.1711 H         1 <0>         0.0840
     40 H16        -5.5158    6.5323   -2.2441 H         1 <0>         0.0859
     41 H17        -5.9430    4.8187   -2.4457 H         1 <0>         0.0908
     42 H18        -3.5203    5.5309   -3.3158 H         1 <0>         0.1194
     43 H19        -2.0168    4.4063   -1.9749 H         1 <0>         0.1398
     44 H20         2.1186    5.8637   -0.6590 H         1 <0>         0.2388
     45 H21         0.5048    6.3307   -0.6708 H         1 <0>         0.2388
@<TRIPOS>BOND
     1    1    5 1
     2    1    2 2
     3    1   28 1
     4    2    3 1
     5    3   18 ar
     6    3    4 ar
     7    4    5 1
     8    4   15 ar
     9    5    6 1
    10    6    7 1
    11    6   12 1
    12    6    8 1
    13    8    9 1
    14    8   29 1
    15    8   30 1
    16    9   10 1
    17    9   11 1
    18    9   13 1
    19   11   12 2
    20   11   31 1
    21   12   32 1
    22   13   14 1
    23   13   33 1
    24   13   34 1
    25   14   35 1
    26   15   16 ar
    27   16   17 ar
    28   16   27 1
    29   17   18 ar
    30   18   19 1
    31   19   20 1
    32   20   21 1
    33   20   26 1
    34   20   22 1
    35   22   23 1
    36   22   36 1
    37   22   37 1
    38   23   24 1
    39   23   38 1
    40   23   39 1
    41   24   25 1
    42   24   40 1
    43   24   41 1
    44   25   26 2
    45   25   42 1
    46   26   43 1
    47   27   44 1
    48   27   45 1
@<TRIPOS>MOLECULE
ZINC00013886
   43    46     0     0     0
SMALL
USER_CHARGES

@<TRIPOS>ATOM
      1 C1          1.2676    2.8703    2.3112 C.2       1 <0>        -0.0484
      2 N1          1.4735    4.0261    2.8718 N.2       1 <0>        -0.1382
      3 C2          1.8469    4.9251    1.9282 C.ar      1 <0>        -0.2281
      4 C3          2.1843    6.2898    1.9447 C.ar      1 <0>         0.2378
      5 N2          2.5110    6.8773    0.7993 N.ar      1 <0>        -0.3357
      6 C4          2.5215    6.1988   -0.3412 C.ar      1 <0>         0.2664
      7 N3          2.2112    4.9141   -0.4014 N.ar      1 <0>        -0.3208
      8 C5          1.8718    4.2481    0.6981 C.ar      1 <0>         0.1102
      9 N4          1.5058    2.9542    0.9704 N.pl3     1 <0>        -0.1662
     10 C6          1.3865    1.8643   -0.0012 C.3       1 <0>         0.0643
     11 H1          1.6477    2.2143   -0.9998 H         1 <0>         0.1421
     12 C7          2.2898    0.6774    0.4070 C.3       1 <0>        -0.1726
     13 C8          1.4189   -0.5289   -0.0143 C.3       1 <0>        -0.0919
     14 H2          1.6894   -0.8607   -1.0167 H         1 <0>         0.1206
     15 C9          0.0021   -0.0041    0.0020 C.2       1 <0>        -0.1383
     16 C10        -0.0156    1.3011    0.0092 C.2       1 <0>        -0.2070
     17 C11         1.5738   -1.6764    0.9858 C.3       1 <0>         0.0067
     18 O1          0.7941   -2.7932    0.5538 O.3       1 <0>        -0.3546
     19 N5          2.8696    6.8581   -1.5086 N.pl3     1 <0>        -0.3793
     20 N6          2.1766    7.0054    3.1289 N.pl3     1 <0>        -0.2195
     21 C12         2.5309    8.4269    3.1281 C.3       1 <0>         0.0015
     22 H3          3.2983    8.6258    2.3800 H         1 <0>         0.1318
     23 C13         3.0194    8.8611    4.5295 C.3       1 <0>        -0.1537
     24 C14         2.4401   10.2916    4.6257 C.3       1 <0>        -0.1437
     25 C15         1.2576   10.2912    3.6851 C.2       1 <0>        -0.1618
     26 C16         1.3076    9.2741    2.8654 C.2       1 <0>        -0.2135
     27 H4          0.9570    1.9759    2.8308 H         1 <0>         0.2064
     28 H5          2.4692    0.6740    1.4822 H         1 <0>         0.1017
     29 H6          3.2300    0.6928   -0.1443 H         1 <0>         0.1050
     30 H7         -0.8801   -0.6270    0.0068 H         1 <0>         0.1558
     31 H8         -0.9144    1.8998    0.0169 H         1 <0>         0.1525
     32 H9          2.6227   -1.9670    1.0457 H         1 <0>         0.0621
     33 H10         1.2301   -1.3513    1.9678 H         1 <0>         0.0619
     34 H11         0.8448   -3.5593    1.1418 H         1 <0>         0.2127
     35 H12         3.1003    7.7999   -1.4834 H         1 <0>         0.2386
     36 H13         2.8827    6.3780   -2.3514 H         1 <0>         0.2376
     37 H14         1.2583    6.9855    3.5244 H         1 <0>         0.1969
     38 H15         2.6041    8.2178    5.3053 H         1 <0>         0.1017
     39 H16         4.1082    8.8752    4.5773 H         1 <0>         0.0956
     40 H17         2.1148   10.5018    5.6446 H         1 <0>         0.0885
     41 H18         3.1815   11.0238    4.3060 H         1 <0>         0.0945
     42 H19         0.4744   11.0349    3.6880 H         1 <0>         0.1365
     43 H20         0.5723    9.0655    2.1023 H         1 <0>         0.1438
@<TRIPOS>BOND
     1    1    9 1
     2    1    2 2
     3    1   27 1
     4    2    3 1
     5    3    8 ar
     6    3    4 ar
     7    4    5 ar
     8    4   20 1
     9    5    6 ar
    10    6    7 ar
    11    6   19 1
    12    7    8 ar
    13    8    9 1
    14    9   10 1
    15   10   11 1
    16   10   16 1
    17   10   12 1
    18   12   13 1
    19   12   28 1
    20   12   29 1
    21   13   14 1
    22   13   15 1
    23   13   17 1
    24   15   16 2
    25   15   30 1
    26   16   31 1
    27   17   18 1
    28   17   32 1
    29   17   33 1
    30   18   34 1
    31   19   35 1
    32   19   36 1
    33   20   21 1
    34   20   37 1
    35   21   22 1
    36   21   26 1
    37   21   23 1
    38   23   24 1
    39   23   38 1
    40   23   39 1
    41   24   25 1
    42   24   40 1
    43   24   41 1
    44   25   26 2
    45   25   42 1
    46   26   43 1
@<TRIPOS>MOLECULE
ZINC00015788
   45    48     0     0     0
SMALL
USER_CHARGES

@<TRIPOS>ATOM
      1 C1         -0.0127    1.0858    0.0080 C.3       1 <0>        -0.0672
      2 N1         -0.6984    1.5583    1.2133 N.pl3     1 <0>        -0.3079
      3 C2         -2.0511    1.7682    1.1935 C.2       1 <0>         0.2864
      4 N2         -2.7462    1.5397    0.0466 N.am      1 <0>        -0.3144
      5 H1         -2.2699    1.2254   -0.7746 H         1 <0>         0.2460
      6 C3         -4.0814    1.7388    0.0209 C.2       1 <0>         0.3439
      7 O1         -4.7212    1.5337   -0.9975 O.2       1 <0>        -0.3717
      8 C4         -4.7196    2.1924    1.1890 C.2       1 <0>        -0.3572
      9 C5         -3.9697    2.4102    2.3080 C.2       1 <0>         0.0501
     10 N3         -2.6566    2.1934    2.2844 N.2       1 <0>        -0.3223
     11 C6          0.0634    1.8061    2.4399 C.3       1 <0>         0.0462
     12 C7          1.1301    2.8716    2.1733 C.3       1 <0>        -0.1768
     13 C8          1.9619    3.0821    3.4406 C.3       1 <0>        -0.0683
     14 N4          2.5958    1.8154    3.8276 N.pl3     1 <0>        -0.1868
     15 C9          1.5901    0.7903    4.1344 C.3       1 <0>        -0.0526
     16 C10         0.7472    0.5114    2.8879 C.3       1 <0>        -0.1809
     17 C11         3.4559    1.9975    4.8900 C.2       1 <0>         0.1154
     18 N5          4.4972    2.8799    4.9135 N.pl3     1 <0>        -0.2292
     19 H2          4.7673    3.4986    4.1758 H         1 <0>         0.2552
     20 C12         5.1109    2.7582    6.1517 C.ar      1 <0>        -0.0569
     21 C13         6.1971    3.3783    6.7501 C.ar      1 <0>        -0.1120
     22 C14         6.5703    3.0271    8.0307 C.ar      1 <0>        -0.1429
     23 C15         5.8622    2.0532    8.7278 C.ar      1 <0>         0.0579
     24 C16         4.7778    1.4267    8.1453 C.ar      1 <0>        -0.1073
     25 C17         4.3910    1.7743    6.8485 C.ar      1 <0>        -0.0153
     26 N6          3.3919    1.3536    6.0288 N.2       1 <0>        -0.2199
     27 O2          6.2397    1.7165    9.9900 O.3       1 <0>        -0.2881
     28 H3          0.0021   -0.0041    0.0020 H         1 <0>         0.0820
     29 H4          1.0099    1.4631    0.0003 H         1 <0>         0.1013
     30 H5         -0.5399    1.4469   -0.8751 H         1 <0>         0.0803
     31 H6         -5.7857    2.3652    1.2003 H         1 <0>         0.1658
     32 H7         -4.4424    2.7586    3.2144 H         1 <0>         0.1641
     33 H8         -0.6105    2.1521    3.2236 H         1 <0>         0.1498
     34 H9          1.7795    2.5416    1.3625 H         1 <0>         0.0945
     35 H10         0.6472    3.8084    1.8951 H         1 <0>         0.1022
     36 H11         1.3141    3.4254    4.2472 H         1 <0>         0.0825
     37 H12         2.7315    3.8300    3.2496 H         1 <0>         0.0919
     38 H13         0.9441    1.1443    4.9378 H         1 <0>         0.0870
     39 H14         2.0897   -0.1264    4.4476 H         1 <0>         0.1266
     40 H15        -0.0092   -0.2382    3.1203 H         1 <0>         0.1053
     41 H16         1.3906    0.1442    2.0883 H         1 <0>         0.0940
     42 H17         6.7508    4.1347    6.2139 H         1 <0>         0.1289
     43 H18         7.4166    3.5113    8.4951 H         1 <0>         0.1430
     44 H19         4.2312    0.6711    8.6899 H         1 <0>         0.1525
     45 H20         6.8839    0.9963   10.0290 H         1 <0>         0.2249
@<TRIPOS>BOND
     1    1    2 1
     2    1   28 1
     3    1   29 1
     4    1   30 1
     5    2    3 1
     6    2   11 1
     7    3   10 2
     8    3    4 1
     9    4    5 1
    10    4    6 am
    11    6    7 2
    12    6    8 1
    13    8    9 2
    14    8   31 1
    15    9   10 1
    16    9   32 1
    17   11   16 1
    18   11   12 1
    19   11   33 1
    20   12   13 1
    21   12   34 1
    22   12   35 1
    23   13   14 1
    24   13   36 1
    25   13   37 1
    26   14   15 1
    27   14   17 1
    28   15   16 1
    29   15   38 1
    30   15   39 1
    31   16   40 1
    32   16   41 1
    33   17   26 2
    34   17   18 1
    35   18   19 1
    36   18   20 1
    37   20   25 ar
    38   20   21 ar
    39   21   22 ar
    40   21   42 1
    41   22   23 ar
    42   22   43 1
    43   23   24 ar
    44   23   27 1
    45   24   25 ar
    46   24   44 1
    47   25   26 1
    48   27   45 1
@<TRIPOS>MOLECULE
ZINC00015788
   46    49     0     0     0
SMALL
USER_CHARGES

@<TRIPOS>ATOM
      1 C1          4.7459    1.5023   -0.0344 C.3       1 <0>        -0.0680
      2 N1          3.4428    2.1716   -0.0188 N.pl3     1 <0>        -0.3177
      3 C2          2.2923    1.4298   -0.0122 C.2       1 <0>         0.2801
      4 N2          2.3726    0.0717   -0.0203 N.am      1 <0>        -0.3092
      5 H1          3.2657   -0.3781   -0.0313 H         1 <0>         0.2492
      6 C3          1.2422   -0.6667   -0.0134 C.2       1 <0>         0.3388
      7 O1          1.2958   -1.8856   -0.0209 O.2       1 <0>        -0.3456
      8 C4          0.0021   -0.0041    0.0020 C.2       1 <0>        -0.3273
      9 C5         -0.0164    1.3604    0.0095 C.2       1 <0>         0.0375
     10 N3          1.1259    2.0437    0.0023 N.2       1 <0>        -0.3303
     11 C6          3.3710    3.6348   -0.0103 C.3       1 <0>         0.0513
     12 C7          4.0578    4.1882   -1.2619 C.3       1 <0>        -0.1789
     13 C8          4.0346    5.7178   -1.2164 C.3       1 <0>        -0.0719
     14 N4          4.7264    6.1846   -0.0082 N.pl3     1 <0>        -0.1774
     15 C9          4.0556    5.7046    1.2067 C.3       1 <0>        -0.0885
     16 C10         4.0808    4.1747    1.2344 C.3       1 <0>        -0.1754
     17 C11         4.8364    7.5593   -0.0017 C.cat     1 <0>         0.2275
     18 N5          5.4116    8.3046   -0.9903 N.pl3     1 <0>        -0.1684
     19 H2          5.8216    7.9566   -1.8334 H         1 <0>         0.3085
     20 C12         5.3213    9.6348   -0.6071 C.ar      1 <0>        -0.0241
     21 C13         5.7205   10.8299   -1.1857 C.ar      1 <0>        -0.0845
     22 C14         5.4808   12.0228   -0.5360 C.ar      1 <0>        -0.1045
     23 C15         4.8397   12.0349    0.6988 C.ar      1 <0>         0.1255
     24 C16         4.4360   10.8527    1.2880 C.ar      1 <0>        -0.1319
     25 C17         4.6736    9.6385    0.6389 C.ar      1 <0>        -0.0252
     26 O2          4.6088   13.2176    1.3290 O.3       1 <0>        -0.2692
     27 H3          5.0596    1.3418   -1.0659 H         1 <0>         0.0856
     28 H4          5.4804    2.1252    0.4760 H         1 <0>         0.0931
     29 H5          4.6671    0.5419    0.4750 H         1 <0>         0.0964
     30 H6         -0.9204   -0.5656    0.0075 H         1 <0>         0.1760
     31 H7         -0.9595    1.8868    0.0169 H         1 <0>         0.1692
     32 H8          2.3271    3.9482    0.0010 H         1 <0>         0.1528
     33 H9          5.0908    3.8416   -1.2935 H         1 <0>         0.1085
     34 H10         3.5297    3.8415   -2.1502 H         1 <0>         0.1307
     35 H11         3.0012    6.0641   -1.1999 H         1 <0>         0.0973
     36 H12         4.5367    6.1149   -2.0987 H         1 <0>         0.1063
     37 H13         3.0221    6.0510    1.2119 H         1 <0>         0.0876
     38 H14         4.5729    6.0923    2.0843 H         1 <0>         0.1089
     39 H15         3.5691    3.8184    2.1284 H         1 <0>         0.1293
     40 H16         5.1141    3.8279    1.2432 H         1 <0>         0.1112
     41 H17         6.2189   10.8268   -2.1438 H         1 <0>         0.1650
     42 H18         5.7925   12.9526   -0.9883 H         1 <0>         0.1799
     43 H19         3.9390   10.8667    2.2467 H         1 <0>         0.1694
     44 H20         5.3236   13.4955    1.9180 H         1 <0>         0.2559
     45 N6          4.3991    8.3441    0.9522 N.pl3     1 <0>        -0.1556
     46 H21         3.9222    8.0299    1.8055 H         1 <0>         0.3118
@<TRIPOS>BOND
     1    1    2 1
     2    1   27 1
     3    1   28 1
     4    1   29 1
     5    2    3 1
     6    2   11 1
     7    3   10 2
     8    3    4 1
     9    4    5 1
    10    4    6 am
    11    6    7 2
    12    6    8 1
    13    8    9 2
    14    8   30 1
    15    9   10 1
    16    9   31 1
    17   11   16 1
    18   11   12 1
    19   11   32 1
    20   12   13 1
    21   12   33 1
    22   12   34 1
    23   13   14 1
    24   13   35 1
    25   13   36 1
    26   14   15 1
    27   14   17 1
    28   15   16 1
    29   15   37 1
    30   15   38 1
    31   16   39 1
    32   16   40 1
    33   17   18 1
    34   17   45 2
    35   18   19 1
    36   18   20 1
    37   20   25 ar
    38   20   21 ar
    39   21   22 ar
    40   21   41 1
    41   22   23 ar
    42   22   42 1
    43   23   24 ar
    44   23   26 1
    45   24   25 ar
    46   24   43 1
    47   25   45 1
    48   26   44 1
    49   45   46 1
@<TRIPOS>MOLECULE
ZINC00016242
   43    44     0     0     0
SMALL
USER_CHARGES

@<TRIPOS>ATOM
      1 C1         -8.2299    3.3847   -0.8383 C.3       1 <0>        -0.0789
      2 N1         -7.1979    3.9873    0.0091 N.pl3     1 <0>        -0.2968
      3 C2         -5.9299    3.2872    0.2291 C.3       1 <0>        -0.0133
      4 C3         -4.9252    3.7011   -0.8479 C.3       1 <0>        -0.1414
      5 C4         -3.6209    2.9809   -0.6216 C.ar      1 <0>        -0.1166
      6 C5         -3.3998    1.7513   -1.2145 C.ar      1 <0>        -0.1029
      7 C6         -2.2055    1.0889   -1.0095 C.ar      1 <0>        -0.1399
      8 C7         -1.2258    1.6590   -0.2067 C.ar      1 <0>         0.0715
      9 C8         -1.4532    2.8918    0.3917 C.ar      1 <0>        -0.1551
     10 C9         -2.6477    3.5513    0.1782 C.ar      1 <0>        -0.1053
     11 N2         -0.0169    0.9915    0.0031 N.pl3     1 <0>        -0.8148
     12 S1          1.4147    1.8165   -0.1083 S.o2      1 <0>         2.6776
     13 O1          1.2797    2.9011    0.7998 O.2       1 <0>        -0.9089
     14 O2          2.4181    0.8294    0.0863 O.2       1 <0>        -0.8870
     15 C10         1.4663    2.4322   -1.8138 C.3       1 <0>        -0.8214
     16 C11        -7.4218    5.2236    0.6045 C.ar      1 <0>         0.2591
     17 C12        -6.4022    5.8363    1.3202 C.ar      1 <0>        -0.3198
     18 C13        -6.6413    7.0733    1.9103 C.ar      1 <0>         0.2346
     19 C14        -7.9048    7.6487    1.7562 C.ar      1 <0>        -0.2414
     20 C15        -8.8651    6.9787    1.0310 C.ar      1 <0>         0.0483
     21 N3         -5.6459    7.7216    2.6360 N.pl3     1 <0>        -0.3409
     22 H1         -8.8872    2.7667   -0.2266 H         1 <0>         0.1002
     23 H2         -8.8126    4.1720   -1.3166 H         1 <0>         0.0779
     24 H3         -7.7577    2.7671   -1.6023 H         1 <0>         0.1264
     25 H4         -6.0954    2.2110    0.1774 H         1 <0>         0.1251
     26 H5         -5.5369    3.5475    1.2119 H         1 <0>         0.1109
     27 H6         -4.7598    4.7772   -0.7962 H         1 <0>         0.0943
     28 H7         -5.3182    3.4407   -1.8307 H         1 <0>         0.1022
     29 H8         -4.1619    1.3088   -1.8389 H         1 <0>         0.1342
     30 H9         -2.0334    0.1288   -1.4732 H         1 <0>         0.1472
     31 H10        -0.6953    3.3358    1.0200 H         1 <0>         0.1903
     32 H11        -2.8235    4.5117    0.6399 H         1 <0>         0.1251
     33 H12        -0.0157    0.0439    0.2102 H         1 <0>         0.2617
     34 H13         0.6534    3.1415   -1.9688 H         1 <0>         0.1349
     35 H14         2.4204    2.9283   -1.9922 H         1 <0>         0.1511
     36 H15         1.3564    1.5968   -2.5052 H         1 <0>         0.1411
     37 H16        -5.4380    5.3597    1.4177 H         1 <0>         0.1877
     38 H17        -8.1261    8.6078    2.2007 H         1 <0>         0.1866
     39 H18        -9.8435    7.4194    0.9085 H         1 <0>         0.1892
     40 H19        -4.7727    7.3112    2.7352 H         1 <0>         0.2505
     41 H20        -5.8256    8.5838    3.0425 H         1 <0>         0.2515
     42 N4         -8.6621    5.7708    0.4361 N.ar      1 <0>        -0.1965
     43 H21        -9.3963    5.3002   -0.1058 H         1 <0>         0.3018
@<TRIPOS>BOND
     1    1    2 1
     2    1   22 1
     3    1   23 1
     4    1   24 1
     5    2    3 1
     6    2   16 1
     7    3    4 1
     8    3   25 1
     9    3   26 1
    10    4    5 1
    11    4   27 1
    12    4   28 1
    13    5   10 ar
    14    5    6 ar
    15    6    7 ar
    16    6   29 1
    17    7    8 ar
    18    7   30 1
    19    8    9 ar
    20    8   11 1
    21    9   10 ar
    22    9   31 1
    23   10   32 1
    24   11   12 1
    25   11   33 1
    26   12   13 2
    27   12   14 2
    28   12   15 1
    29   15   34 1
    30   15   35 1
    31   15   36 1
    32   16   17 ar
    33   16   42 ar
    34   17   18 ar
    35   17   37 1
    36   18   19 ar
    37   18   21 1
    38   19   20 ar
    39   19   38 1
    40   20   39 1
    41   20   42 ar
    42   21   40 1
    43   21   41 1
    44   42   43 1
@<TRIPOS>MOLECULE
ZINC00017176
   42    44     0     0     0
SMALL
USER_CHARGES

@<TRIPOS>ATOM
      1 C1         -0.0127    1.0858    0.0080 C.3       1 <0>        -0.2017
      2 C2         -0.7288    1.5792    1.2668 C.3       1 <0>        -0.1415
      3 C3         -2.1642    1.0497    1.2777 C.3       1 <0>        -0.7679
      4 S1         -3.0133    1.6347    2.7701 S.o2      1 <0>         2.6797
      5 O1         -2.4472    1.0292    3.9244 O.2       1 <0>        -0.9050
      6 O2         -3.1991    3.0421    2.7077 O.2       1 <0>        -0.9074
      7 N1         -4.5401    1.0019    2.6668 N.pl3     1 <0>        -0.8752
      8 C4         -4.7372   -0.4487    2.7223 C.3       1 <0>         0.0475
      9 H1         -3.8205   -0.9732    2.4526 H         1 <0>         0.1077
     10 C5         -5.2316   -0.8821    4.1186 C.3       1 <0>        -0.1352
     11 C6         -6.1859   -2.0295    3.8627 C.ar      1 <0>        -0.0732
     12 C7         -6.6750   -2.9971    4.7267 C.ar      1 <0>        -0.1116
     13 C8         -7.5480   -3.9617    4.2708 C.ar      1 <0>        -0.1126
     14 C9         -7.9412   -3.9641    2.9337 C.ar      1 <0>        -0.0255
     15 C10        -7.4486   -2.9909    2.0687 C.ar      1 <0>        -0.0808
     16 C11        -6.5728   -2.0274    2.5346 C.ar      1 <0>        -0.0942
     17 C12        -5.9044   -0.8791    1.8089 C.3       1 <0>        -0.1287
     18 C13        -8.8800   -4.9988    2.4347 C.2       1 <0>        -0.0601
     19 C14        -9.3768   -5.9848    3.3189 C.2       1 <0>        -0.0933
     20 C15       -10.2381   -6.9196    2.8250 C.2       1 <0>        -0.1993
     21 C16       -10.5817   -6.8447    1.4570 C.2       1 <0>         0.2766
     22 O3        -11.3487   -7.6599    0.9703 O.2       1 <0>        -0.3599
     23 N2        -10.0566   -5.8680    0.6938 N.am      1 <0>        -0.2022
     24 H2        -10.3008   -5.8231   -0.2749 H         1 <0>         0.2860
     25 N3         -9.2507   -4.9926    1.1760 N.2       1 <0>        -0.0293
     26 H3          0.0021   -0.0041    0.0020 H         1 <0>         0.0757
     27 H4          1.0099    1.4631    0.0003 H         1 <0>         0.0809
     28 H5         -0.5399    1.4469   -0.8751 H         1 <0>         0.0763
     29 H6         -0.2017    1.2182    2.1499 H         1 <0>         0.0959
     30 H7         -0.7436    2.6691    1.2728 H         1 <0>         0.0966
     31 H8         -2.6914    1.4107    0.3946 H         1 <0>         0.1382
     32 H9         -2.1494   -0.0402    1.2717 H         1 <0>         0.1331
     33 H10        -5.3040    1.5917    2.5695 H         1 <0>         0.2477
     34 H11        -4.3932   -1.2166    4.7296 H         1 <0>         0.1110
     35 H12        -5.7523   -0.0589    4.6077 H         1 <0>         0.1123
     36 H13        -6.3705   -2.9950    5.7629 H         1 <0>         0.1364
     37 H14        -7.9260   -4.7135    4.9478 H         1 <0>         0.1331
     38 H15        -7.7507   -2.9885    1.0318 H         1 <0>         0.1483
     39 H16        -6.6057   -0.0551    1.6778 H         1 <0>         0.1046
     40 H17        -5.5256   -1.2118    0.8425 H         1 <0>         0.0945
     41 H18        -9.0814   -5.9973    4.3576 H         1 <0>         0.1498
     42 H19       -10.6445   -7.6930    3.4599 H         1 <0>         0.1726
@<TRIPOS>BOND
     1    1    2 1
     2    1   26 1
     3    1   27 1
     4    1   28 1
     5    2    3 1
     6    2   29 1
     7    2   30 1
     8    3    4 1
     9    3   31 1
    10    3   32 1
    11    4    5 2
    12    4    6 2
    13    4    7 1
    14    7    8 1
    15    7   33 1
    16    8    9 1
    17    8   17 1
    18    8   10 1
    19   10   11 1
    20   10   34 1
    21   10   35 1
    22   11   16 ar
    23   11   12 ar
    24   12   13 ar
    25   12   36 1
    26   13   14 ar
    27   13   37 1
    28   14   15 ar
    29   14   18 1
    30   15   16 ar
    31   15   38 1
    32   16   17 1
    33   17   39 1
    34   17   40 1
    35   18   25 2
    36   18   19 1
    37   19   20 2
    38   19   41 1
    39   20   21 1
    40   20   42 1
    41   21   22 2
    42   21   23 am
    43   23   24 1
    44   23   25 1
@<TRIPOS>MOLECULE
ZINC00017176
   42    44     0     0     0
SMALL
USER_CHARGES

@<TRIPOS>ATOM
      1 C1         -0.0127    1.0858    0.0080 C.3       1 <0>        -0.2017
      2 C2         -0.7288    1.5792    1.2668 C.3       1 <0>        -0.1414
      3 C3         -2.1642    1.0497    1.2777 C.3       1 <0>        -0.7680
      4 S1         -3.0133    1.6347    2.7701 S.o2      1 <0>         2.6800
      5 O1         -2.4472    1.0292    3.9244 O.2       1 <0>        -0.9059
      6 O2         -3.1991    3.0421    2.7077 O.2       1 <0>        -0.9086
      7 N1         -4.5401    1.0019    2.6668 N.pl3     1 <0>        -0.8750
      8 C4         -4.7372   -0.4487    2.7223 C.3       1 <0>         0.0469
      9 H1         -3.8205   -0.9732    2.4526 H         1 <0>         0.1071
     10 C5         -5.2316   -0.8821    4.1186 C.3       1 <0>        -0.1346
     11 C6         -6.1859   -2.0295    3.8627 C.ar      1 <0>        -0.0755
     12 C7         -6.6750   -2.9971    4.7267 C.ar      1 <0>        -0.1140
     13 C8         -7.5480   -3.9617    4.2708 C.ar      1 <0>        -0.1176
     14 C9         -7.9412   -3.9641    2.9337 C.ar      1 <0>        -0.0288
     15 C10        -7.4486   -2.9909    2.0687 C.ar      1 <0>        -0.0754
     16 C11        -6.5728   -2.0274    2.5346 C.ar      1 <0>        -0.0950
     17 C12        -5.9044   -0.8791    1.8089 C.3       1 <0>        -0.1282
     18 C13        -8.8800   -4.9988    2.4347 C.ar      1 <0>        -0.0845
     19 C14        -9.3768   -5.9848    3.3189 C.ar      1 <0>        -0.0729
     20 C15       -10.2381   -6.9196    2.8250 C.ar      1 <0>        -0.2880
     21 C16       -10.5727   -6.8516    1.4544 C.ar      1 <0>         0.1246
     22 O3        -11.3359   -7.6697    0.9666 O.3       1 <0>        -0.1687
     23 N2        -10.0480   -5.8746    0.6913 N.ar      1 <0>        -0.1069
     24 H2        -11.6260   -8.3167    1.6717 H         1 <0>         0.2590
     25 N3         -9.2464   -4.9959    1.1747 N.ar      1 <0>        -0.0006
     26 H3          0.0021   -0.0041    0.0020 H         1 <0>         0.0758
     27 H4          1.0099    1.4631    0.0003 H         1 <0>         0.0802
     28 H5         -0.5399    1.4469   -0.8751 H         1 <0>         0.0765
     29 H6         -0.2017    1.2182    2.1499 H         1 <0>         0.0954
     30 H7         -0.7436    2.6691    1.2728 H         1 <0>         0.0963
     31 H8         -2.6914    1.4107    0.3946 H         1 <0>         0.1386
     32 H9         -2.1494   -0.0402    1.2717 H         1 <0>         0.1336
     33 H10        -5.3040    1.5917    2.5695 H         1 <0>         0.2478
     34 H11        -4.3932   -1.2166    4.7296 H         1 <0>         0.1095
     35 H12        -5.7523   -0.0589    4.6077 H         1 <0>         0.1110
     36 H13        -6.3705   -2.9950    5.7629 H         1 <0>         0.1336
     37 H14        -7.9260   -4.7135    4.9478 H         1 <0>         0.1290
     38 H15        -7.7507   -2.9885    1.0318 H         1 <0>         0.1555
     39 H16        -6.6057   -0.0551    1.6778 H         1 <0>         0.1044
     40 H17        -5.5256   -1.2118    0.8425 H         1 <0>         0.0954
     41 H18        -9.0818   -5.9970    4.3577 H         1 <0>         0.1481
     42 H19       -10.6447   -7.6929    3.4600 H         1 <0>         0.1430
@<TRIPOS>BOND
     1    1    2 1
     2    1   26 1
     3    1   27 1
     4    1   28 1
     5    2    3 1
     6    2   29 1
     7    2   30 1
     8    3    4 1
     9    3   31 1
    10    3   32 1
    11    4    5 2
    12    4    6 2
    13    4    7 1
    14    7    8 1
    15    7   33 1
    16    8    9 1
    17    8   17 1
    18    8   10 1
    19   10   11 1
    20   10   34 1
    21   10   35 1
    22   11   16 ar
    23   11   12 ar
    24   12   13 ar
    25   12   36 1
    26   13   14 ar
    27   13   37 1
    28   14   15 ar
    29   14   18 1
    30   15   16 ar
    31   15   38 1
    32   16   17 1
    33   17   39 1
    34   17   40 1
    35   18   19 ar
    36   18   25 ar
    37   19   41 1
    38   19   20 ar
    39   20   42 1
    40   20   21 ar
    41   21   23 ar
    42   21   22 1
    43   22   24 1
    44   23   25 ar
@<TRIPOS>MOLECULE
ZINC00020210
   45    47     0     0     0
SMALL
USER_CHARGES

@<TRIPOS>ATOM
      1 C1         -0.0127    1.0858    0.0080 C.3       1 <0>        -0.2016
      2 C2         -0.7288    1.5792    1.2668 C.3       1 <0>        -0.1414
      3 C3         -0.7496    3.1091    1.2752 C.3       1 <0>        -0.7679
      4 S1         -1.5987    3.6941    2.7677 S.o2      1 <0>         2.6818
      5 O1         -2.9791    3.3624    2.7073 O.2       1 <0>        -0.9061
      6 O2         -0.8291    3.3848    3.9216 O.2       1 <0>        -0.9085
      7 N1         -1.5560    5.3461    2.6616 N.pl3     1 <0>        -0.8840
      8 C4         -2.2750    6.0297    1.5837 C.3       1 <0>         0.0002
      9 C5         -2.3926    7.5191    1.9135 C.3       1 <0>        -0.1200
     10 H1         -2.8461    7.6624    2.8943 H         1 <0>         0.1157
     11 C6         -1.0133    8.2076    1.8411 C.3       1 <0>        -0.1208
     12 C7         -1.2903    9.5945    1.3002 C.ar      1 <0>        -0.0759
     13 C8         -0.5057   10.7372    1.3214 C.ar      1 <0>        -0.1130
     14 C9         -0.9656   11.9091    0.7596 C.ar      1 <0>        -0.1147
     15 C10        -2.2267   11.9455    0.1675 C.ar      1 <0>        -0.0239
     16 C11        -3.0125   10.7964    0.1483 C.ar      1 <0>        -0.0819
     17 C12        -2.5429    9.6251    0.7138 C.ar      1 <0>        -0.0871
     18 C13        -3.1961    8.2604    0.8241 C.3       1 <0>        -0.1137
     19 C14        -2.7295   13.2026   -0.4390 C.2       1 <0>        -0.0608
     20 C15        -1.9262   14.3666   -0.4157 C.2       1 <0>        -0.0933
     21 C16        -2.4210   15.5036   -0.9832 C.2       1 <0>        -0.1997
     22 C17        -3.7088   15.4480   -1.5607 C.2       1 <0>         0.2766
     23 O3         -4.1931   16.4407   -2.0799 O.2       1 <0>        -0.3598
     24 N2         -4.3983   14.2920   -1.5339 N.am      1 <0>        -0.2020
     25 H2         -5.3111   14.2604   -1.9410 H         1 <0>         0.2863
     26 N3         -3.9155   13.2290   -0.9998 N.2       1 <0>        -0.0279
     27 H3          0.0021   -0.0041    0.0020 H         1 <0>         0.0806
     28 H4          1.0099    1.4631    0.0003 H         1 <0>         0.0760
     29 H5         -0.5399    1.4469   -0.8751 H         1 <0>         0.0755
     30 H6         -1.7514    1.2020    1.2746 H         1 <0>         0.0959
     31 H7         -0.2017    1.2182    2.1499 H         1 <0>         0.0964
     32 H8          0.2730    3.4864    1.2675 H         1 <0>         0.1373
     33 H9         -1.2768    3.4701    0.3922 H         1 <0>         0.1335
     34 H10        -1.0550    5.8612    3.3133 H         1 <0>         0.2467
     35 H11        -1.7294    5.9068    0.6481 H         1 <0>         0.0705
     36 H12        -3.2716    5.6002    1.4822 H         1 <0>         0.1061
     37 H13        -0.5696    8.2708    2.8347 H         1 <0>         0.0924
     38 H14        -0.3532    7.6620    1.1668 H         1 <0>         0.0990
     39 H15         0.4715   10.7090    1.7803 H         1 <0>         0.1331
     40 H16        -0.3504   12.7966    0.7787 H         1 <0>         0.1325
     41 H17        -3.9905   10.8197   -0.3094 H         1 <0>         0.1494
     42 H18        -3.1245    7.7300   -0.1254 H         1 <0>         0.0978
     43 H19        -4.2390    8.3597    1.1251 H         1 <0>         0.0993
     44 H20        -0.9471   14.3553    0.0398 H         1 <0>         0.1494
     45 H21        -1.8463   16.4180   -0.9905 H         1 <0>         0.1723
@<TRIPOS>BOND
     1    1    2 1
     2    1   27 1
     3    1   28 1
     4    1   29 1
     5    2    3 1
     6    2   30 1
     7    2   31 1
     8    3    4 1
     9    3   32 1
    10    3   33 1
    11    4    5 2
    12    4    6 2
    13    4    7 1
    14    7    8 1
    15    7   34 1
    16    8    9 1
    17    8   35 1
    18    8   36 1
    19    9   10 1
    20    9   18 1
    21    9   11 1
    22   11   12 1
    23   11   37 1
    24   11   38 1
    25   12   17 ar
    26   12   13 ar
    27   13   14 ar
    28   13   39 1
    29   14   15 ar
    30   14   40 1
    31   15   16 ar
    32   15   19 1
    33   16   17 ar
    34   16   41 1
    35   17   18 1
    36   18   42 1
    37   18   43 1
    38   19   26 2
    39   19   20 1
    40   20   21 2
    41   20   44 1
    42   21   22 1
    43   21   45 1
    44   22   23 2
    45   22   24 am
    46   24   25 1
    47   24   26 1
@<TRIPOS>MOLECULE
ZINC00020210
   45    47     0     0     0
SMALL
USER_CHARGES

@<TRIPOS>ATOM
      1 C1         -0.0127    1.0858    0.0080 C.3       1 <0>        -0.2016
      2 C2         -0.7288    1.5792    1.2668 C.3       1 <0>        -0.1414
      3 C3         -0.7496    3.1091    1.2752 C.3       1 <0>        -0.7681
      4 S1         -1.5987    3.6941    2.7677 S.o2      1 <0>         2.6820
      5 O1         -2.9791    3.3624    2.7073 O.2       1 <0>        -0.9060
      6 O2         -0.8291    3.3848    3.9216 O.2       1 <0>        -0.9096
      7 N1         -1.5560    5.3461    2.6616 N.pl3     1 <0>        -0.8839
      8 C4         -2.2750    6.0297    1.5837 C.3       1 <0>        -0.0001
      9 C5         -2.3926    7.5191    1.9135 C.3       1 <0>        -0.1203
     10 H1         -2.8461    7.6624    2.8943 H         1 <0>         0.1151
     11 C6         -1.0133    8.2076    1.8411 C.3       1 <0>        -0.1203
     12 C7         -1.2903    9.5945    1.3002 C.ar      1 <0>        -0.0782
     13 C8         -0.5057   10.7372    1.3214 C.ar      1 <0>        -0.1154
     14 C9         -0.9656   11.9091    0.7596 C.ar      1 <0>        -0.1197
     15 C10        -2.2267   11.9455    0.1675 C.ar      1 <0>        -0.0273
     16 C11        -3.0125   10.7964    0.1483 C.ar      1 <0>        -0.0765
     17 C12        -2.5429    9.6251    0.7138 C.ar      1 <0>        -0.0880
     18 C13        -3.1961    8.2604    0.8241 C.3       1 <0>        -0.1132
     19 C14        -2.7295   13.2026   -0.4390 C.ar      1 <0>        -0.0848
     20 C15        -1.9262   14.3666   -0.4157 C.ar      1 <0>        -0.0731
     21 C16        -2.4210   15.5036   -0.9832 C.ar      1 <0>        -0.2883
     22 C17        -3.7134   15.4510   -1.5506 C.ar      1 <0>         0.1246
     23 O3         -4.1997   16.4450   -2.0655 O.3       1 <0>        -0.1686
     24 N2         -4.4027   14.2949   -1.5243 N.ar      1 <0>        -0.1064
     25 H2         -3.5547   17.2060   -1.9956 H         1 <0>         0.2589
     26 N3         -3.9177   13.2304   -0.9950 N.ar      1 <0>         0.0006
     27 H3          0.0021   -0.0041    0.0020 H         1 <0>         0.0802
     28 H4          1.0099    1.4631    0.0003 H         1 <0>         0.0758
     29 H5         -0.5399    1.4469   -0.8751 H         1 <0>         0.0757
     30 H6         -1.7514    1.2020    1.2746 H         1 <0>         0.0959
     31 H7         -0.2017    1.2182    2.1499 H         1 <0>         0.0960
     32 H8          0.2730    3.4864    1.2675 H         1 <0>         0.1371
     33 H9         -1.2768    3.4701    0.3922 H         1 <0>         0.1339
     34 H10        -1.0550    5.8612    3.3133 H         1 <0>         0.2466
     35 H11        -1.7294    5.9068    0.6481 H         1 <0>         0.0704
     36 H12        -3.2716    5.6002    1.4822 H         1 <0>         0.1062
     37 H13        -0.5696    8.2708    2.8347 H         1 <0>         0.0908
     38 H14        -0.3532    7.6620    1.1668 H         1 <0>         0.0977
     39 H15         0.4715   10.7090    1.7803 H         1 <0>         0.1303
     40 H16        -0.3504   12.7966    0.7787 H         1 <0>         0.1284
     41 H17        -3.9905   10.8197   -0.3094 H         1 <0>         0.1565
     42 H18        -3.1245    7.7300   -0.1254 H         1 <0>         0.0976
     43 H19        -4.2390    8.3597    1.1251 H         1 <0>         0.1002
     44 H20        -0.9469   14.3552    0.0395 H         1 <0>         0.1477
     45 H21        -1.8462   16.4179   -0.9908 H         1 <0>         0.1427
@<TRIPOS>BOND
     1    1    2 1
     2    1   27 1
     3    1   28 1
     4    1   29 1
     5    2    3 1
     6    2   30 1
     7    2   31 1
     8    3    4 1
     9    3   32 1
    10    3   33 1
    11    4    5 2
    12    4    6 2
    13    4    7 1
    14    7    8 1
    15    7   34 1
    16    8    9 1
    17    8   35 1
    18    8   36 1
    19    9   10 1
    20    9   18 1
    21    9   11 1
    22   11   12 1
    23   11   37 1
    24   11   38 1
    25   12   17 ar
    26   12   13 ar
    27   13   14 ar
    28   13   39 1
    29   14   15 ar
    30   14   40 1
    31   15   16 ar
    32   15   19 1
    33   16   17 ar
    34   16   41 1
    35   17   18 1
    36   18   42 1
    37   18   43 1
    38   19   20 ar
    39   19   26 ar
    40   20   44 1
    41   20   21 ar
    42   21   45 1
    43   21   22 ar
    44   22   24 ar
    45   22   23 1
    46   23   25 1
    47   24   26 ar
@<TRIPOS>MOLECULE
ZINC00020212
   40    42     0     0     0
SMALL
USER_CHARGES

@<TRIPOS>ATOM
      1 C1          8.0606    0.1218    2.2097 C.2       1 <0>        -0.0487
      2 C2          7.4855    1.2070    1.7539 C.2       1 <0>        -0.8478
      3 S1          7.2803    1.4329    0.0186 S.o2      1 <0>         2.7476
      4 O1          7.8074    0.2712   -0.6073 O.2       1 <0>        -0.9223
      5 O2          7.7525    2.7396   -0.2796 O.2       1 <0>        -0.9075
      6 N1          5.6525    1.4371   -0.2855 N.pl3     1 <0>        -0.8833
      7 C3          4.8093    2.5070    0.2536 C.3       1 <0>         0.0019
      8 C4          3.4555    2.4975   -0.4590 C.3       1 <0>        -0.1207
      9 H1          3.5889    2.5064   -1.5408 H         1 <0>         0.1144
     10 C5          2.6109    1.2842   -0.0161 C.3       1 <0>        -0.1207
     11 C6          1.1808    1.7812    0.0004 C.ar      1 <0>        -0.0762
     12 C7         -0.0126    1.0758    0.0080 C.ar      1 <0>        -0.1131
     13 C8         -1.2180    1.7448    0.0173 C.ar      1 <0>        -0.1148
     14 C9         -1.2369    3.1384    0.0307 C.ar      1 <0>        -0.0240
     15 C10        -0.0368    3.8440    0.0226 C.ar      1 <0>        -0.0818
     16 C11         1.1676    3.1645    0.0075 C.ar      1 <0>        -0.0870
     17 C12         2.5875    3.6897   -0.0036 C.3       1 <0>        -0.1139
     18 C13        -2.5295    3.8663    0.0474 C.2       1 <0>        -0.0608
     19 C14        -3.7452    3.1432    0.0556 C.2       1 <0>        -0.0933
     20 C15        -4.9138    3.8457    0.0709 C.2       1 <0>        -0.1997
     21 C16        -4.8373    5.2562    0.0778 C.2       1 <0>         0.2766
     22 O3         -5.8568    5.9271    0.0911 O.2       1 <0>        -0.3599
     23 N2         -3.6316    5.8550    0.0690 N.am      1 <0>        -0.2020
     24 H2         -3.5845    6.8539    0.0695 H         1 <0>         0.2863
     25 N3         -2.5406    5.1783    0.0600 N.2       1 <0>        -0.0278
     26 H3          8.1864   -0.0166    3.2734 H         1 <0>         0.1189
     27 H4          8.4088   -0.6344    1.5218 H         1 <0>         0.1407
     28 H5          7.1373    1.9633    2.4418 H         1 <0>         0.1660
     29 H6          5.2572    0.7312   -0.8206 H         1 <0>         0.2459
     30 H7          5.2969    3.4688    0.0947 H         1 <0>         0.1062
     31 H8          4.6590    2.3479    1.3214 H         1 <0>         0.0747
     32 H9          2.9097    0.9589    0.9804 H         1 <0>         0.1002
     33 H10         2.7192    0.4673   -0.7296 H         1 <0>         0.0918
     34 H11         0.0021   -0.0041    0.0020 H         1 <0>         0.1330
     35 H12        -2.1449    1.1906    0.0187 H         1 <0>         0.1324
     36 H13        -0.0464    4.9239    0.0278 H         1 <0>         0.1495
     37 H14         2.6797    4.5158   -0.7086 H         1 <0>         0.0988
     38 H15         2.8794    4.0119    0.9960 H         1 <0>         0.0989
     39 H16        -3.7478    2.0632    0.0494 H         1 <0>         0.1493
     40 H17        -5.8679    3.3397    0.0773 H         1 <0>         0.1723
@<TRIPOS>BOND
     1    1    2 2
     2    1   26 1
     3    1   27 1
     4    2    3 1
     5    2   28 1
     6    3    4 2
     7    3    5 2
     8    3    6 1
     9    6    7 1
    10    6   29 1
    11    7    8 1
    12    7   30 1
    13    7   31 1
    14    8    9 1
    15    8   17 1
    16    8   10 1
    17   10   11 1
    18   10   32 1
    19   10   33 1
    20   11   16 ar
    21   11   12 ar
    22   12   13 ar
    23   12   34 1
    24   13   14 ar
    25   13   35 1
    26   14   15 ar
    27   14   18 1
    28   15   16 ar
    29   15   36 1
    30   16   17 1
    31   17   37 1
    32   17   38 1
    33   18   25 2
    34   18   19 1
    35   19   20 2
    36   19   39 1
    37   20   21 1
    38   20   40 1
    39   21   22 2
    40   21   23 am
    41   23   24 1
    42   23   25 1
@<TRIPOS>MOLECULE
ZINC00020212
   40    42     0     0     0
SMALL
USER_CHARGES

@<TRIPOS>ATOM
      1 C1          8.0606    0.1218    2.2097 C.2       1 <0>        -0.0498
      2 C2          7.4855    1.2070    1.7539 C.2       1 <0>        -0.8471
      3 S1          7.2803    1.4329    0.0186 S.o2      1 <0>         2.7478
      4 O1          7.8074    0.2712   -0.6073 O.2       1 <0>        -0.9234
      5 O2          7.7525    2.7396   -0.2796 O.2       1 <0>        -0.9074
      6 N1          5.6525    1.4371   -0.2855 N.pl3     1 <0>        -0.8832
      7 C3          4.8093    2.5070    0.2536 C.3       1 <0>         0.0017
      8 C4          3.4555    2.4975   -0.4590 C.3       1 <0>        -0.1210
      9 H1          3.5889    2.5064   -1.5408 H         1 <0>         0.1138
     10 C5          2.6109    1.2842   -0.0161 C.3       1 <0>        -0.1202
     11 C6          1.1808    1.7812    0.0004 C.ar      1 <0>        -0.0786
     12 C7         -0.0126    1.0758    0.0080 C.ar      1 <0>        -0.1155
     13 C8         -1.2180    1.7448    0.0173 C.ar      1 <0>        -0.1198
     14 C9         -1.2369    3.1384    0.0307 C.ar      1 <0>        -0.0273
     15 C10        -0.0368    3.8440    0.0226 C.ar      1 <0>        -0.0763
     16 C11         1.1676    3.1645    0.0075 C.ar      1 <0>        -0.0879
     17 C12         2.5875    3.6897   -0.0036 C.3       1 <0>        -0.1134
     18 C13        -2.5295    3.8663    0.0474 C.ar      1 <0>        -0.0847
     19 C14        -3.7452    3.1432    0.0556 C.ar      1 <0>        -0.0732
     20 C15        -4.9138    3.8457    0.0709 C.ar      1 <0>        -0.2883
     21 C16        -4.8374    5.2562    0.0663 C.ar      1 <0>         0.1246
     22 O3         -5.8569    5.9272    0.0748 O.3       1 <0>        -0.1685
     23 N2         -3.6317    5.8550    0.0580 N.ar      1 <0>        -0.1063
     24 H2         -6.6536    5.3228    0.0800 H         1 <0>         0.2588
     25 N3         -2.5407    5.1783    0.0545 N.ar      1 <0>         0.0006
     26 H3          8.1864   -0.0166    3.2734 H         1 <0>         0.1185
     27 H4          8.4088   -0.6344    1.5218 H         1 <0>         0.1403
     28 H5          7.1373    1.9633    2.4418 H         1 <0>         0.1662
     29 H6          5.2572    0.7312   -0.8206 H         1 <0>         0.2458
     30 H7          5.2969    3.4688    0.0947 H         1 <0>         0.1063
     31 H8          4.6590    2.3479    1.3214 H         1 <0>         0.0746
     32 H9          2.9097    0.9589    0.9804 H         1 <0>         0.0990
     33 H10         2.7192    0.4673   -0.7296 H         1 <0>         0.0902
     34 H11         0.0021   -0.0041    0.0020 H         1 <0>         0.1301
     35 H12        -2.1449    1.1906    0.0187 H         1 <0>         0.1283
     36 H13        -0.0464    4.9239    0.0278 H         1 <0>         0.1566
     37 H14         2.6797    4.5158   -0.7086 H         1 <0>         0.0997
     38 H15         2.8794    4.0119    0.9960 H         1 <0>         0.0986
     39 H16        -3.7478    2.0632    0.0499 H         1 <0>         0.1476
     40 H17        -5.8679    3.3397    0.0775 H         1 <0>         0.1427
@<TRIPOS>BOND
     1    1    2 2
     2    1   26 1
     3    1   27 1
     4    2    3 1
     5    2   28 1
     6    3    4 2
     7    3    5 2
     8    3    6 1
     9    6    7 1
    10    6   29 1
    11    7    8 1
    12    7   30 1
    13    7   31 1
    14    8    9 1
    15    8   17 1
    16    8   10 1
    17   10   11 1
    18   10   32 1
    19   10   33 1
    20   11   16 ar
    21   11   12 ar
    22   12   13 ar
    23   12   34 1
    24   13   14 ar
    25   13   35 1
    26   14   15 ar
    27   14   18 1
    28   15   16 ar
    29   15   36 1
    30   16   17 1
    31   17   37 1
    32   17   38 1
    33   18   19 ar
    34   18   25 ar
    35   19   39 1
    36   19   20 ar
    37   20   40 1
    38   20   21 ar
    39   21   23 ar
    40   21   22 1
    41   22   24 1
    42   23   25 ar
@<TRIPOS>MOLECULE
ZINC00020730
   43    45     0     0     0
SMALL
USER_CHARGES

@<TRIPOS>ATOM
      1 C1         -0.7240   -0.7393    0.9249 C.3       1 <0>        -0.2529
      2 C2          0.7664   -0.8626    0.7390 C.2       1 <0>         0.2712
      3 O1          1.2921   -1.9554    0.7626 O.2       1 <0>        -0.2965
      4 C3          1.5814    0.3399    0.5233 C.ar      1 <0>        -0.2075
      5 C4          0.9786    1.6036    0.4953 C.ar      1 <0>        -0.0492
      6 C5          1.7412    2.7169    0.2962 C.ar      1 <0>        -0.1792
      7 C6          3.1209    2.6096    0.1192 C.ar      1 <0>         0.1632
      8 C7          3.7272    1.3614    0.1419 C.ar      1 <0>        -0.2049
      9 C8          2.9653    0.2300    0.3502 C.ar      1 <0>        -0.0150
     10 C9          5.2145    1.2068   -0.0525 C.3       1 <0>         0.0619
     11 H1          5.5982    0.4713    0.6545 H         1 <0>         0.1269
     12 C10         5.9073    2.5510    0.1845 C.3       1 <0>         0.0034
     13 H2          6.9402    2.4978   -0.1596 H         1 <0>         0.1091
     14 C11         5.1532    3.6271   -0.6073 C.3       1 <0>         0.0927
     15 O2          3.8374    3.7467   -0.0656 O.3       1 <0>        -0.1882
     16 C12         5.8848    4.9651   -0.4836 C.3       1 <0>        -0.1961
     17 C13         5.0699    3.2197   -2.0797 C.3       1 <0>        -0.2358
     18 O3          5.8785    2.8689    1.5773 O.3       1 <0>        -0.3327
     19 N1          5.4831    0.7550   -1.4200 N.am      1 <0>        -0.3847
     20 C14         6.6926    0.2531   -1.7385 C.2       1 <0>         0.3890
     21 O4          7.5618    0.1752   -0.8902 O.2       1 <0>        -0.3655
     22 C15         6.9614   -0.1989   -3.1068 C.2       1 <0>        -0.3481
     23 C16         8.1228   -0.7395   -3.6361 C.2       1 <0>        -0.0895
     24 C17         8.1036   -1.0825   -4.9650 C.2       1 <0>        -0.1962
     25 C18         6.9697   -0.8803   -5.6860 C.2       1 <0>        -0.3125
     26 S1          5.8763   -0.2040   -4.5229 S.3       1 <0>         0.3841
     27 H3         -0.9309   -0.6329    1.8975 H         1 <0>         0.0996
     28 H4         -1.0875    0.1312    0.3788 H         1 <0>         0.0874
     29 H5         -1.2130   -1.6365    0.5455 H         1 <0>         0.1068
     30 H6         -0.0888    1.6965    0.6309 H         1 <0>         0.1391
     31 H7          1.2728    3.6898    0.2749 H         1 <0>         0.1493
     32 H8          3.4369   -0.7413    0.3749 H         1 <0>         0.1581
     33 H9          6.8948    4.8651   -0.8811 H         1 <0>         0.0896
     34 H10         5.3463    5.7271   -1.0472 H         1 <0>         0.0856
     35 H11         5.9344    5.2565    0.5655 H         1 <0>         0.1069
     36 H12         4.3788    2.3837   -2.1869 H         1 <0>         0.0822
     37 H13         4.7138    4.0636   -2.6706 H         1 <0>         0.0915
     38 H14         6.0579    2.9216   -2.4307 H         1 <0>         0.0936
     39 H15         6.3227    2.2186    2.1385 H         1 <0>         0.2199
     40 H16         4.7903    0.8171   -2.0961 H         1 <0>         0.2365
     41 H17         9.0045   -0.8841   -3.0294 H         1 <0>         0.1663
     42 H18         8.9793   -1.5083   -5.4321 H         1 <0>         0.1499
     43 H19         6.7914   -1.0933   -6.7297 H         1 <0>         0.1908
@<TRIPOS>BOND
     1    1    2 1
     2    1   27 1
     3    1   28 1
     4    1   29 1
     5    2    3 2
     6    2    4 1
     7    4    9 ar
     8    4    5 ar
     9    5    6 ar
    10    5   30 1
    11    6    7 ar
    12    6   31 1
    13    7   15 1
    14    7    8 ar
    15    8    9 ar
    16    8   10 1
    17    9   32 1
    18   10   11 1
    19   10   12 1
    20   10   19 1
    21   12   13 1
    22   12   14 1
    23   12   18 1
    24   14   15 1
    25   14   16 1
    26   14   17 1
    27   16   33 1
    28   16   34 1
    29   16   35 1
    30   17   36 1
    31   17   37 1
    32   17   38 1
    33   18   39 1
    34   19   20 am
    35   19   40 1
    36   20   21 2
    37   20   22 1
    38   22   26 1
    39   22   23 2
    40   23   24 1
    41   23   41 1
    42   24   25 2
    43   24   42 1
    44   25   26 1
    45   25   43 1
@<TRIPOS>MOLECULE
ZINC00023778
   43    44     0     0     0
SMALL
USER_CHARGES

@<TRIPOS>ATOM
      1 C1         -0.7306    1.5673   -1.2293 C.3       1 <0>        -0.1989
      2 C2          0.0022    1.0752    0.0203 C.3       1 <0>        -0.1145
      3 H1          0.0203    0.0754    0.0240 H         1 <0>         0.1029
      4 C3          1.4137    1.6032    0.0155 C.ar      1 <0>        -0.0495
      5 C4          1.6384    2.9684    0.0042 C.ar      1 <0>        -0.1017
      6 C5          2.9280    3.4583    0.0055 C.ar      1 <0>        -0.1120
      7 C6          4.0074    2.5734    0.0062 C.ar      1 <0>        -0.1189
      8 C7          3.7738    1.1973    0.0119 C.ar      1 <0>        -0.0667
      9 C8          2.4792    0.7205    0.0168 C.ar      1 <0>        -0.1317
     10 C9          5.3921    3.0913    0.0015 C.2       1 <0>         0.3616
     11 O1          6.3302    2.3183    0.0026 O.2       1 <0>        -0.3381
     12 N1          5.6144    4.4206   -0.0039 N.am      1 <0>        -0.3008
     13 O2          6.9406    4.9167   -0.0084 O.3       1 <0>        -0.1806
     14 C10        -0.7147    1.5692    1.2504 C.2       1 <0>         0.2830
     15 O3         -0.4124    2.6367    1.7410 O.2       1 <0>        -0.3003
     16 C11        -1.7786    0.7590    1.8547 C.ar      1 <0>        -0.2270
     17 C12        -2.1334   -0.4715    1.2863 C.ar      1 <0>        -0.0400
     18 C13        -3.1209   -1.2243    1.8543 C.ar      1 <0>        -0.2282
     19 C14        -3.7821   -0.7659    2.9917 C.ar      1 <0>         0.1563
     20 C15        -3.4361    0.4595    3.5570 C.ar      1 <0>        -0.2322
     21 C16        -2.4465    1.2164    2.9983 C.ar      1 <0>        -0.0140
     22 N2         -4.7893   -1.5325    3.5633 N.pl3     1 <0>        -0.3282
     23 C17        -5.3994   -1.1149    4.8281 C.3       1 <0>        -0.0574
     24 C18        -5.2416   -2.7587    2.9016 C.3       1 <0>        -0.0525
     25 H2         -0.7504    2.6571   -1.2334 H         1 <0>         0.0874
     26 H3         -0.2121    1.2100   -2.1190 H         1 <0>         0.0859
     27 H4         -1.7515    1.1854   -1.2258 H         1 <0>         0.0811
     28 H5          0.8023    3.6520   -0.0011 H         1 <0>         0.1500
     29 H6          3.1021    4.5242    0.0011 H         1 <0>         0.1215
     30 H7          4.6046    0.5073    0.0122 H         1 <0>         0.1586
     31 H8          2.2971   -0.3440    0.0211 H         1 <0>         0.1352
     32 H9          4.8658    5.0375   -0.0048 H         1 <0>         0.2279
     33 H10         6.9995    5.8819   -0.0122 H         1 <0>         0.2049
     34 H11        -1.6242   -0.8258    0.4022 H         1 <0>         0.1313
     35 H12        -3.3922   -2.1748    1.4193 H         1 <0>         0.1351
     36 H13        -3.9512    0.8112    4.4388 H         1 <0>         0.1381
     37 H14        -2.1787    2.1660    3.4374 H         1 <0>         0.1507
     38 H15        -5.0018   -0.1428    5.1198 H         1 <0>         0.0967
     39 H16        -6.4799   -1.0430    4.7040 H         1 <0>         0.0734
     40 H17        -5.1705   -1.8480    5.6015 H         1 <0>         0.0730
     41 H18        -4.6491   -3.6024    3.2555 H         1 <0>         0.0700
     42 H19        -6.2928   -2.9302    3.1335 H         1 <0>         0.0815
     43 H20        -5.1195   -2.6560    1.8233 H         1 <0>         0.0868
@<TRIPOS>BOND
     1    1    2 1
     2    1   25 1
     3    1   26 1
     4    1   27 1
     5    2    3 1
     6    2    4 1
     7    2   14 1
     8    4    9 ar
     9    4    5 ar
    10    5    6 ar
    11    5   28 1
    12    6    7 ar
    13    6   29 1
    14    7    8 ar
    15    7   10 1
    16    8    9 ar
    17    8   30 1
    18    9   31 1
    19   10   11 2
    20   10   12 am
    21   12   13 1
    22   12   32 1
    23   13   33 1
    24   14   15 2
    25   14   16 1
    26   16   21 ar
    27   16   17 ar
    28   17   18 ar
    29   17   34 1
    30   18   19 ar
    31   18   35 1
    32   19   20 ar
    33   19   22 1
    34   20   21 ar
    35   20   36 1
    36   21   37 1
    37   22   23 1
    38   22   24 1
    39   23   38 1
    40   23   39 1
    41   23   40 1
    42   24   41 1
    43   24   42 1
    44   24   43 1
@<TRIPOS>MOLECULE
ZINC00024494
   45    47     0     0     0
SMALL
USER_CHARGES

@<TRIPOS>ATOM
      1 C1          0.1278    0.7144   -1.5090 C.3       1 <0>        -0.2088
      2 C2          0.1858   -0.2681   -0.3376 C.3       1 <0>         0.0341
      3 H1          0.4117    0.2741    0.5806 H         1 <0>         0.0770
      4 C3         -1.1653   -0.9719   -0.1950 C.3       1 <0>        -0.0126
      5 H2         -1.3713   -1.5490   -1.0964 H         1 <0>         0.1308
      6 C4         -1.1267   -1.9097    1.0133 C.3       1 <0>        -0.1768
      7 C5         -2.4278   -2.7121    1.0778 C.3       1 <0>        -0.1241
      8 C6         -2.4179   -3.5874    2.3045 C.ar      1 <0>        -0.0701
      9 C7         -2.0110   -4.8835    2.2169 C.ar      1 <0>        -0.1215
     10 C8         -1.9886   -5.7060    3.3414 C.ar      1 <0>        -0.1257
     11 C9         -2.3850   -5.2409    4.5578 C.ar      1 <0>        -0.1135
     12 C10        -2.8175   -3.9103    4.6861 C.ar      1 <0>        -0.0343
     13 C11        -2.8340   -3.0717    3.5434 C.ar      1 <0>        -0.0303
     14 C12        -3.2672   -1.7408    3.6718 C.ar      1 <0>        -0.1242
     15 C13        -3.6638   -1.2762    4.8879 C.ar      1 <0>        -0.1206
     16 C14        -3.6480   -2.1010    6.0114 C.ar      1 <0>        -0.1252
     17 C15        -3.2350   -3.3948    5.9252 C.ar      1 <0>        -0.1146
     18 N1         -2.2189    0.0279   -0.0037 N.pl3     1 <0>        -0.1352
     19 C16        -3.2903    0.2224   -0.8081 C.2       1 <0>        -0.0975
     20 C17        -4.0121    1.2451   -0.2657 C.2       1 <0>        -0.1769
     21 N2         -3.3656    1.6515    0.8568 N.2       1 <0>        -0.1590
     22 C18        -2.2964    0.9256    1.0129 C.2       1 <0>        -0.1009
     23 C19        -5.2643    1.8069   -0.8011 C.2       1 <0>         0.3956
     24 O1         -5.7465    1.3542   -1.8218 O.2       1 <0>        -0.3838
     25 N3         -5.8757    2.8225   -0.1598 N.am      1 <0>        -0.4158
     26 O2          1.2055   -1.2393   -0.5805 O.3       1 <0>        -0.3380
     27 H3         -0.6500    1.4552   -1.3238 H         1 <0>         0.0957
     28 H4          1.0903    1.2158   -1.6106 H         1 <0>         0.0945
     29 H5         -0.0981    0.1722   -2.4272 H         1 <0>         0.0900
     30 H6         -0.2829   -2.5929    0.9161 H         1 <0>         0.0980
     31 H7         -1.0160   -1.3230    1.9252 H         1 <0>         0.0979
     32 H8         -3.2747   -2.0277    1.1266 H         1 <0>         0.1059
     33 H9         -2.5150   -3.3351    0.1876 H         1 <0>         0.0929
     34 H10        -1.6960   -5.2788    1.2624 H         1 <0>         0.1283
     35 H11        -1.6566   -6.7292    3.2455 H         1 <0>         0.1298
     36 H12        -2.3669   -5.8913    5.4198 H         1 <0>         0.1334
     37 H13        -3.2855   -1.0904    2.8099 H         1 <0>         0.1378
     38 H14        -3.9963   -0.2532    4.9838 H         1 <0>         0.1321
     39 H15        -3.9680   -1.7072    6.9648 H         1 <0>         0.1295
     40 H16        -3.2284   -4.0222    6.8042 H         1 <0>         0.1331
     41 H17        -3.5259   -0.3242   -1.7093 H         1 <0>         0.1970
     42 H18        -1.5853    1.0220    1.8200 H         1 <0>         0.2041
     43 H19        -5.4912    3.1835    0.6543 H         1 <0>         0.2304
     44 H20        -6.7002    3.1924   -0.5123 H         1 <0>         0.2280
     45 H21         1.3681   -1.8336    0.1648 H         1 <0>         0.2135
@<TRIPOS>BOND
     1    1    2 1
     2    1   27 1
     3    1   28 1
     4    1   29 1
     5    2    3 1
     6    2    4 1
     7    2   26 1
     8    4    5 1
     9    4    6 1
    10    4   18 1
    11    6    7 1
    12    6   30 1
    13    6   31 1
    14    7    8 1
    15    7   32 1
    16    7   33 1
    17    8   13 ar
    18    8    9 ar
    19    9   10 ar
    20    9   34 1
    21   10   11 ar
    22   10   35 1
    23   11   12 ar
    24   11   36 1
    25   12   17 ar
    26   12   13 ar
    27   13   14 ar
    28   14   15 ar
    29   14   37 1
    30   15   16 ar
    31   15   38 1
    32   16   17 ar
    33   16   39 1
    34   17   40 1
    35   18   22 1
    36   18   19 1
    37   19   20 2
    38   19   41 1
    39   20   21 1
    40   20   23 1
    41   21   22 2
    42   22   42 1
    43   23   24 2
    44   23   25 am
    45   25   43 1
    46   25   44 1
    47   26   45 1
@<TRIPOS>MOLECULE
ZINC00024494
   46    48     0     0     0
SMALL
USER_CHARGES

@<TRIPOS>ATOM
      1 C1          0.1278    0.7144   -1.5090 C.3       1 <0>        -0.2156
      2 C2          0.1858   -0.2681   -0.3376 C.3       1 <0>         0.0349
      3 H1          0.4117    0.2741    0.5806 H         1 <0>         0.0753
      4 C3         -1.1653   -0.9719   -0.1950 C.3       1 <0>        -0.0321
      5 H2         -1.3713   -1.5490   -1.0964 H         1 <0>         0.1620
      6 C4         -1.1267   -1.9097    1.0133 C.3       1 <0>        -0.1843
      7 C5         -2.4278   -2.7121    1.0778 C.3       1 <0>        -0.1194
      8 C6         -2.4179   -3.5874    2.3045 C.ar      1 <0>        -0.1000
      9 C7         -2.0110   -4.8835    2.2169 C.ar      1 <0>        -0.0960
     10 C8         -1.9886   -5.7060    3.3414 C.ar      1 <0>        -0.1238
     11 C9         -2.3850   -5.2409    4.5578 C.ar      1 <0>        -0.0919
     12 C10        -2.8175   -3.9103    4.6861 C.ar      1 <0>        -0.0350
     13 C11        -2.8340   -3.0717    3.5434 C.ar      1 <0>        -0.0222
     14 C12        -3.2672   -1.7408    3.6718 C.ar      1 <0>        -0.1517
     15 C13        -3.6638   -1.2762    4.8879 C.ar      1 <0>        -0.1102
     16 C14        -3.6480   -2.1010    6.0114 C.ar      1 <0>        -0.1273
     17 C15        -3.2350   -3.3948    5.9252 C.ar      1 <0>        -0.0884
     18 N1         -2.2189    0.0279   -0.0037 N.pl3     1 <0>        -0.0634
     19 C16        -3.2903    0.2224   -0.8081 C.2       1 <0>        -0.0175
     20 C17        -4.0121    1.2451   -0.2657 C.2       1 <0>        -0.1373
     21 C18        -2.2964    0.9256    1.0129 C.cat     1 <0>         0.0115
     22 C19        -5.2643    1.8069   -0.8011 C.2       1 <0>         0.3683
     23 O1         -5.7465    1.3542   -1.8218 O.2       1 <0>        -0.2938
     24 N2         -5.8757    2.8225   -0.1598 N.am      1 <0>        -0.4081
     25 O2          1.2055   -1.2393   -0.5805 O.3       1 <0>        -0.3092
     26 H3         -0.6500    1.4552   -1.3238 H         1 <0>         0.0672
     27 H4          1.0903    1.2158   -1.6106 H         1 <0>         0.1234
     28 H5         -0.0981    0.1722   -2.4272 H         1 <0>         0.1059
     29 H6         -0.2829   -2.5929    0.9161 H         1 <0>         0.1305
     30 H7         -1.0160   -1.3230    1.9252 H         1 <0>         0.0971
     31 H8         -3.2747   -2.0277    1.1266 H         1 <0>         0.0804
     32 H9         -2.5150   -3.3351    0.1876 H         1 <0>         0.1038
     33 H10        -1.6960   -5.2788    1.2624 H         1 <0>         0.1332
     34 H11        -1.6566   -6.7292    3.2455 H         1 <0>         0.1450
     35 H12        -2.3669   -5.8913    5.4198 H         1 <0>         0.1476
     36 H13        -3.2855   -1.0904    2.8099 H         1 <0>         0.0938
     37 H14        -3.9963   -0.2532    4.9838 H         1 <0>         0.1196
     38 H15        -3.9680   -1.7072    6.9648 H         1 <0>         0.1420
     39 H16        -3.2284   -4.0222    6.8042 H         1 <0>         0.1479
     40 H17        -3.5259   -0.3242   -1.7093 H         1 <0>         0.2489
     41 H18        -1.5853    1.0220    1.8200 H         1 <0>         0.2520
     42 H19        -5.4912    3.1835    0.6543 H         1 <0>         0.2085
     43 H20        -6.7002    3.1924   -0.5123 H         1 <0>         0.2689
     44 H21         1.3681   -1.8336    0.1648 H         1 <0>         0.2268
     45 N3         -3.3645    1.6487    0.8545 N.pl3     1 <0>        -0.0821
     46 H22        -3.6692    2.4051    1.4783 H         1 <0>         0.3146
@<TRIPOS>BOND
     1    1    2 1
     2    1   26 1
     3    1   27 1
     4    1   28 1
     5    2    3 1
     6    2    4 1
     7    2   25 1
     8    4    5 1
     9    4    6 1
    10    4   18 1
    11    6    7 1
    12    6   29 1
    13    6   30 1
    14    7    8 1
    15    7   31 1
    16    7   32 1
    17    8   13 ar
    18    8    9 ar
    19    9   10 ar
    20    9   33 1
    21   10   11 ar
    22   10   34 1
    23   11   12 ar
    24   11   35 1
    25   12   17 ar
    26   12   13 ar
    27   13   14 ar
    28   14   15 ar
    29   14   36 1
    30   15   16 ar
    31   15   37 1
    32   16   17 ar
    33   16   38 1
    34   17   39 1
    35   18   21 1
    36   18   19 1
    37   19   20 2
    38   19   40 1
    39   20   22 1
    40   20   45 1
    41   21   41 1
    42   21   45 2
    43   22   23 2
    44   22   24 am
    45   24   42 1
    46   24   43 1
    47   25   44 1
    48   45   46 1
@<TRIPOS>MOLECULE
ZINC00024689
   44    46     0     0     0
SMALL
USER_CHARGES

@<TRIPOS>ATOM
      1 C1         -2.5652    0.0917   -1.2342 C.3       1 <0>        -0.1997
      2 C2         -2.4945    0.9660    0.0195 C.3       1 <0>        -0.0310
      3 C3         -2.5532    0.0783    1.2642 C.3       1 <0>        -0.1975
      4 C4         -3.6757    1.9385    0.0303 C.3       1 <0>         0.0004
      5 N1         -4.9306    1.1825    0.0323 N.pl3     1 <0>        -0.8841
      6 S1         -6.3529    1.9399    0.4144 S.o2      1 <0>         2.6807
      7 O1         -7.3385    0.9189    0.3409 O.2       1 <0>        -0.9094
      8 O2         -6.0904    2.6064    1.6416 O.2       1 <0>        -0.9056
      9 C5         -6.6073    3.1507   -0.9123 C.3       1 <0>        -0.8285
     10 C6         -1.2037    1.7436    0.0175 C.ar      1 <0>        -0.0542
     11 C7         -1.2377    3.1313    0.0299 C.ar      1 <0>        -0.1442
     12 C8         -0.0671    3.8595    0.0226 C.ar      1 <0>        -0.0662
     13 C9          1.1541    3.1992    0.0077 C.ar      1 <0>        -0.0465
     14 C10         1.1888    1.7930    0.0004 C.ar      1 <0>        -0.0644
     15 C11        -0.0126    1.0758    0.0082 C.ar      1 <0>        -0.1175
     16 N2          2.4923    1.4253   -0.0132 N.pl3     1 <0>        -0.1553
     17 C12         3.2509    2.4931   -0.0147 C.2       1 <0>         0.0300
     18 N3          2.4695    3.6168   -0.0020 N.2       1 <0>        -0.1605
     19 H1          2.8249    0.4823   -0.0210 H         1 <0>         0.2527
     20 C13         4.7308    2.4857   -0.0281 C.ar      1 <0>         0.0181
     21 C14         5.4557    3.6823   -0.0345 C.ar      1 <0>        -0.1426
     22 C15         6.8347    3.6291   -0.0427 C.ar      1 <0>        -0.0445
     23 N4          7.4679    2.4720   -0.0542 N.ar      1 <0>        -0.1576
     24 C16         6.8231    1.3214   -0.0533 C.ar      1 <0>        -0.0397
     25 C17         5.4437    1.2820   -0.0406 C.ar      1 <0>        -0.1910
     26 H2         -1.7238   -0.6011   -1.2419 H         1 <0>         0.0799
     27 H3         -3.4989   -0.4707   -1.2327 H         1 <0>         0.0739
     28 H4         -2.5234    0.7242   -2.1210 H         1 <0>         0.0825
     29 H5         -2.5029    0.7012    2.1574 H         1 <0>         0.0906
     30 H6         -3.4869   -0.4841    1.2657 H         1 <0>         0.0802
     31 H7         -1.7118   -0.6145    1.2565 H         1 <0>         0.0752
     32 H8         -3.6253    2.5613    0.9235 H         1 <0>         0.1089
     33 H9         -3.6338    2.5709   -0.8564 H         1 <0>         0.0729
     34 H10        -4.9284    0.2384   -0.1902 H         1 <0>         0.2480
     35 H11        -6.6706    2.6329   -1.8693 H         1 <0>         0.1358
     36 H12        -7.5332    3.6971   -0.7327 H         1 <0>         0.1421
     37 H13        -5.7710    3.8494   -0.9317 H         1 <0>         0.1318
     38 H14        -2.1881    3.6442    0.0418 H         1 <0>         0.1362
     39 H15        -0.0999    4.9390    0.0279 H         1 <0>         0.1458
     40 H16         0.0021   -0.0041    0.0023 H         1 <0>         0.1295
     41 H17         4.9439    4.6333   -0.0294 H         1 <0>         0.1671
     42 H18         7.4032    4.5474   -0.0443 H         1 <0>         0.1672
     43 H19         7.3823    0.3975   -0.0630 H         1 <0>         0.1631
     44 H20         4.9223    0.3362   -0.0399 H         1 <0>         0.1274
@<TRIPOS>BOND
     1    1    2 1
     2    1   26 1
     3    1   27 1
     4    1   28 1
     5    2    3 1
     6    2    4 1
     7    2   10 1
     8    3   29 1
     9    3   30 1
    10    3   31 1
    11    4    5 1
    12    4   32 1
    13    4   33 1
    14    5    6 1
    15    5   34 1
    16    6    7 2
    17    6    8 2
    18    6    9 1
    19    9   35 1
    20    9   36 1
    21    9   37 1
    22   10   15 ar
    23   10   11 ar
    24   11   12 ar
    25   11   38 1
    26   12   13 ar
    27   12   39 1
    28   13   18 1
    29   13   14 ar
    30   14   15 ar
    31   14   16 1
    32   15   40 1
    33   16   17 1
    34   16   19 1
    35   17   20 1
    36   17   18 2
    37   20   25 ar
    38   20   21 ar
    39   21   22 ar
    40   21   41 1
    41   22   23 ar
    42   22   42 1
    43   23   24 ar
    44   24   25 ar
    45   24   43 1
    46   25   44 1
@<TRIPOS>MOLECULE
ZINC00024689
   45    47     0     0     0
SMALL
USER_CHARGES

@<TRIPOS>ATOM
      1 C1         -2.5651    0.0918   -1.2346 C.3       1 <0>        -0.2024
      2 C2         -2.4945    0.9660    0.0191 C.3       1 <0>        -0.0455
      3 C3         -2.5533    0.0783    1.2638 C.3       1 <0>        -0.2001
      4 C4         -3.6757    1.9385    0.0299 C.3       1 <0>         0.0018
      5 N1         -4.9306    1.1825    0.0318 N.pl3     1 <0>        -0.8842
      6 S1         -6.3529    1.9399    0.4138 S.o2      1 <0>         2.6769
      7 O1         -7.3385    0.9189    0.3402 O.2       1 <0>        -0.8887
      8 O2         -6.0905    2.6063    1.6411 O.2       1 <0>        -0.9021
      9 C5         -6.6072    3.1507   -0.9128 C.3       1 <0>        -0.8257
     10 C6         -1.2037    1.7436    0.0172 C.ar      1 <0>        -0.0156
     11 C7         -1.2377    3.1313    0.0297 C.ar      1 <0>        -0.0777
     12 C8         -0.0671    3.8595    0.0225 C.ar      1 <0>        -0.0968
     13 C9          1.1541    3.1992    0.0077 C.ar      1 <0>        -0.0176
     14 C10         1.1888    1.7930    0.0003 C.ar      1 <0>        -0.0417
     15 C11        -0.0126    1.0758    0.0080 C.ar      1 <0>        -0.0928
     16 C12         3.2509    2.4931   -0.0147 C.cat     1 <0>         0.1901
     17 N2          2.4695    3.6168   -0.0020 N.pl3     1 <0>        -0.1466
     18 H1          2.7916    4.5635   -0.0001 H         1 <0>         0.3077
     19 C13         4.7308    2.4857   -0.0281 C.ar      1 <0>        -0.0672
     20 C14         5.4557    3.6823   -0.0345 C.ar      1 <0>        -0.1495
     21 C15         6.8347    3.6291   -0.0427 C.ar      1 <0>        -0.0100
     22 N3          7.4679    2.4720   -0.0542 N.ar      1 <0>        -0.1062
     23 C16         6.8231    1.3214   -0.0533 C.ar      1 <0>        -0.0093
     24 C17         5.4437    1.2820   -0.0406 C.ar      1 <0>        -0.1547
     25 H2         -1.7237   -0.6010   -1.2423 H         1 <0>         0.0785
     26 H3         -3.4988   -0.4706   -1.2332 H         1 <0>         0.0988
     27 H4         -2.5233    0.7243   -2.1214 H         1 <0>         0.0862
     28 H5         -2.5030    0.7011    2.1570 H         1 <0>         0.0942
     29 H6         -3.4870   -0.4841    1.2652 H         1 <0>         0.1050
     30 H7         -1.7119   -0.6145    1.2561 H         1 <0>         0.0739
     31 H8         -3.6254    2.5613    0.9231 H         1 <0>         0.1069
     32 H9         -3.6338    2.5709   -0.8568 H         1 <0>         0.0706
     33 H10        -4.9284    0.2384   -0.1908 H         1 <0>         0.2503
     34 H11        -6.6705    2.6330   -1.8699 H         1 <0>         0.1397
     35 H12        -7.5332    3.6971   -0.7333 H         1 <0>         0.1534
     36 H13        -5.7709    3.8494   -0.9322 H         1 <0>         0.1241
     37 H14        -2.1881    3.6442    0.0415 H         1 <0>         0.1730
     38 H15        -0.0999    4.9390    0.0278 H         1 <0>         0.1641
     39 H16         0.0021   -0.0041    0.0020 H         1 <0>         0.1637
     40 H17         4.9439    4.6333   -0.0294 H         1 <0>         0.1423
     41 H18         7.4032    4.5474   -0.0443 H         1 <0>         0.1931
     42 H19         7.3823    0.3975   -0.0630 H         1 <0>         0.1928
     43 H20         4.9223    0.3362   -0.0399 H         1 <0>         0.1391
     44 N4          2.4927    1.4243   -0.0133 N.pl3     1 <0>        -0.1055
     45 H21         2.8341    0.4560   -0.0213 H         1 <0>         0.3137
@<TRIPOS>BOND
     1    1    2 1
     2    1   25 1
     3    1   26 1
     4    1   27 1
     5    2    3 1
     6    2    4 1
     7    2   10 1
     8    3   28 1
     9    3   29 1
    10    3   30 1
    11    4    5 1
    12    4   31 1
    13    4   32 1
    14    5    6 1
    15    5   33 1
    16    6    7 2
    17    6    8 2
    18    6    9 1
    19    9   34 1
    20    9   35 1
    21    9   36 1
    22   10   15 ar
    23   10   11 ar
    24   11   12 ar
    25   11   37 1
    26   12   13 ar
    27   12   38 1
    28   13   17 1
    29   13   14 ar
    30   14   15 ar
    31   14   44 1
    32   15   39 1
    33   16   17 1
    34   16   19 1
    35   16   44 2
    36   17   18 1
    37   19   24 ar
    38   19   20 ar
    39   20   21 ar
    40   20   40 1
    41   21   22 ar
    42   21   41 1
    43   22   23 ar
    44   23   24 ar
    45   23   42 1
    46   24   43 1
    47   44   45 1
@<TRIPOS>MOLECULE
ZINC00026735
   40    44     0     0     0
SMALL
USER_CHARGES

@<TRIPOS>ATOM
      1 C1          1.7293    5.3877   -0.7065 C.ar      1 <0>        -0.1631
      2 C2          0.9325    6.4900   -0.7999 C.ar      1 <0>        -0.0447
      3 C3          1.3789    7.7176   -0.2974 C.ar      1 <0>        -0.1895
      4 C4          0.8012    9.0568   -0.2391 C.2       1 <0>        -0.1193
      5 N1          1.6632    9.8372    0.3473 N.2       1 <0>        -0.0382
      6 N2          2.8066    9.1125    0.6987 N.pl3     1 <0>        -0.2316
      7 H1          3.6113    9.4861    1.1601 H         1 <0>         0.2803
      8 C5          2.6472    7.8079    0.3091 C.ar      1 <0>         0.0466
      9 C6          3.4452    6.6717    0.4016 C.ar      1 <0>        -0.2100
     10 C7          2.9849    5.4688   -0.1021 C.ar      1 <0>         0.1320
     11 N3          3.7855    4.3266   -0.0103 N.pl3     1 <0>        -0.2695
     12 C8          3.2009    3.0835    0.1749 C.ar      1 <0>         0.2606
     13 N4          1.8943    3.0150    0.3730 N.ar      1 <0>        -0.2999
     14 C9          1.2986    1.8409    0.5548 C.ar      1 <0>         0.1021
     15 C10         2.0738    0.6695    0.5344 C.ar      1 <0>        -0.2200
     16 C11         3.4579    0.7900    0.3208 C.ar      1 <0>         0.2386
     17 N5          3.9708    2.0030    0.1480 N.ar      1 <0>        -0.3276
     18 N6          4.2687   -0.3308    0.2916 N.pl3     1 <0>        -0.2153
     19 C12         5.7093   -0.1871    0.0677 C.3       1 <0>        -0.0505
     20 C13         6.1600   -0.6164   -1.3385 C.3       1 <0>        -0.1630
     21 C14         7.3918   -1.2469   -0.6636 C.3       1 <0>        -0.1802
     22 C15         6.5373   -1.3643    0.6095 C.3       1 <0>        -0.1877
     23 N7          1.2304   -0.3714    0.7421 N.2       1 <0>        -0.1349
     24 C16         0.0172    0.0760    0.8851 C.2       1 <0>        -0.0499
     25 N8          0.0068    1.4361    0.7777 N.pl3     1 <0>        -0.2119
     26 H2         -0.7953    2.0291    0.8485 H         1 <0>         0.2637
     27 H3          1.3843    4.4428   -1.0995 H         1 <0>         0.1597
     28 H4         -0.0391    6.4172   -1.2657 H         1 <0>         0.1316
     29 H5         -0.1684    9.3484   -0.6150 H         1 <0>         0.1894
     30 H6          4.4192    6.7289    0.8648 H         1 <0>         0.1316
     31 H7          4.7502    4.4040   -0.0763 H         1 <0>         0.2572
     32 H8          4.2069   -0.8098    1.1672 H         1 <0>         0.1957
     33 H9          6.0891    0.7891    0.3690 H         1 <0>         0.1214
     34 H10         5.4976   -1.3448   -1.8060 H         1 <0>         0.1141
     35 H11         6.4008    0.2204   -1.9942 H         1 <0>         0.0904
     36 H12         8.2325   -0.5603   -0.5636 H         1 <0>         0.0973
     37 H13         7.6794   -2.2094   -1.0867 H         1 <0>         0.0915
     38 H14         7.0822   -1.1304    1.5241 H         1 <0>         0.0862
     39 H15         5.9778   -2.2972    0.6770 H         1 <0>         0.1087
     40 H16        -0.8530   -0.5384    1.0629 H         1 <0>         0.2085
@<TRIPOS>BOND
     1    1   10 ar
     2    1    2 ar
     3    1   27 1
     4    2    3 ar
     5    2   28 1
     6    3    8 ar
     7    3    4 1
     8    4    5 2
     9    4   29 1
    10    5    6 1
    11    6    7 1
    12    6    8 1
    13    8    9 ar
    14    9   10 ar
    15    9   30 1
    16   10   11 1
    17   11   12 1
    18   11   31 1
    19   12   17 ar
    20   12   13 ar
    21   13   14 ar
    22   14   25 1
    23   14   15 ar
    24   15   16 ar
    25   15   23 1
    26   16   17 ar
    27   16   18 1
    28   18   19 1
    29   18   32 1
    30   19   22 1
    31   19   20 1
    32   19   33 1
    33   20   21 1
    34   20   34 1
    35   20   35 1
    36   21   22 1
    37   21   36 1
    38   21   37 1
    39   22   38 1
    40   22   39 1
    41   23   24 2
    42   24   25 1
    43   24   40 1
    44   25   26 1
@<TRIPOS>MOLECULE
ZINC00026736
   43    46     0     0     0
SMALL
USER_CHARGES

@<TRIPOS>ATOM
      1 C1          1.4089    2.7072    1.2330 C.3       1 <0>        -0.2084
      2 C2          1.2119    1.6773    0.1188 C.3       1 <0>         0.0332
      3 C3          2.3769    0.6855    0.1294 C.3       1 <0>        -0.2042
      4 C4          1.1626    2.3917   -1.2332 C.3       1 <0>        -0.2476
      5 N1         -0.0449    0.9567    0.3365 N.pl3     1 <0>        -0.2150
      6 C5         -1.2432    1.6479    0.3620 C.ar      1 <0>         0.2369
      7 C6         -2.4587    0.9708    0.5640 C.ar      1 <0>        -0.2205
      8 C7         -3.6449    1.7226    0.5811 C.ar      1 <0>         0.1052
      9 N2         -4.6599    0.8240    0.7919 N.pl3     1 <0>        -0.2081
     10 H1         -5.6347    1.0370    0.8574 H         1 <0>         0.2679
     11 C8         -4.0951   -0.4137    0.8957 C.2       1 <0>        -0.0456
     12 N3         -2.8041   -0.3252    0.7618 N.2       1 <0>        -0.1365
     13 N4         -3.5800    3.0390    0.4070 N.ar      1 <0>        -0.3055
     14 C9         -2.4147    3.6366    0.2198 C.ar      1 <0>         0.2527
     15 N5         -1.2695    2.9660    0.2016 N.ar      1 <0>        -0.3281
     16 N6         -2.3883    5.0112    0.0420 N.pl3     1 <0>        -0.2722
     17 C10        -3.5857    5.7269   -0.0535 C.ar      1 <0>         0.0787
     18 C11        -3.6664    7.0156    0.4621 C.ar      1 <0>        -0.1372
     19 C12        -4.8472    7.7299    0.3655 C.ar      1 <0>        -0.0921
     20 C13        -5.9493    7.1619   -0.2317 C.ar      1 <0>        -0.1297
     21 C14        -5.8843    5.8652   -0.7497 C.ar      1 <0>        -0.1623
     22 C15        -4.6913    5.1477   -0.6569 C.ar      1 <0>        -0.0455
     23 C16        -7.2034    5.5345   -1.3197 C.2       1 <0>         0.3607
     24 O1         -7.4860    4.4795   -1.8512 O.2       1 <0>        -0.2940
     25 O2         -8.0475    6.5683   -1.1665 O.3       1 <0>        -0.2201
     26 C17        -7.3529    7.6507   -0.4886 C.3       1 <0>         0.0218
     27 H2          1.4441    2.1982    2.1962 H         1 <0>         0.0836
     28 H3          2.3440    3.2433    1.0710 H         1 <0>         0.0733
     29 H4          0.5790    3.4138    1.2255 H         1 <0>         0.1043
     30 H5          2.2366   -0.0483   -0.6644 H         1 <0>         0.0733
     31 H6          3.3120    1.2216   -0.0326 H         1 <0>         0.0841
     32 H7          2.4120    0.1765    1.0926 H         1 <0>         0.0908
     33 H8          0.3327    3.0983   -1.2407 H         1 <0>         0.1087
     34 H9          2.0977    2.9278   -1.3952 H         1 <0>         0.0810
     35 H10         1.0223    1.6580   -2.0270 H         1 <0>         0.0686
     36 H11        -0.1714    0.2805   -0.3893 H         1 <0>         0.1949
     37 H12        -4.6393   -1.3312    1.0642 H         1 <0>         0.2101
     38 H13        -1.5392    5.4765   -0.0162 H         1 <0>         0.2585
     39 H14        -2.8040    7.4616    0.9351 H         1 <0>         0.1396
     40 H15        -4.9055    8.7324    0.7629 H         1 <0>         0.1367
     41 H16        -4.6293    4.1452   -1.0539 H         1 <0>         0.1771
     42 H17        -7.3301    8.5362   -1.1238 H         1 <0>         0.1152
     43 H18        -7.8484    7.8802    0.4547 H         1 <0>         0.1157
@<TRIPOS>BOND
     1    1    2 1
     2    1   27 1
     3    1   28 1
     4    1   29 1
     5    2    3 1
     6    2    4 1
     7    2    5 1
     8    3   30 1
     9    3   31 1
    10    3   32 1
    11    4   33 1
    12    4   34 1
    13    4   35 1
    14    5    6 1
    15    5   36 1
    16    6   15 ar
    17    6    7 ar
    18    7   12 1
    19    7    8 ar
    20    8    9 1
    21    8   13 ar
    22    9   10 1
    23    9   11 1
    24   11   12 2
    25   11   37 1
    26   13   14 ar
    27   14   15 ar
    28   14   16 1
    29   16   17 1
    30   16   38 1
    31   17   22 ar
    32   17   18 ar
    33   18   19 ar
    34   18   39 1
    35   19   20 ar
    36   19   40 1
    37   20   26 1
    38   20   21 ar
    39   21   22 ar
    40   21   23 1
    41   22   41 1
    42   23   24 2
    43   23   25 1
    44   25   26 1
    45   26   42 1
    46   26   43 1
@<TRIPOS>MOLECULE
ZINC00026882
   39    41     0     0     0
SMALL
USER_CHARGES

@<TRIPOS>ATOM
      1 C1        -12.8644   -6.1100    1.9898 C.3       1 <0>        -0.0506
      2 O1        -11.6587   -5.3391    1.7444 O.3       1 <0>        -0.2689
      3 C2        -11.6104   -4.6259    0.6019 C.2       1 <0>         0.3532
      4 O2        -12.5503   -4.6476   -0.1681 O.2       1 <0>        -0.3683
      5 C3        -10.4178   -3.8195    0.2865 C.ar      1 <0>        -0.1519
      6 C4        -10.3661   -3.0787   -0.8988 C.ar      1 <0>        -0.0342
      7 C5         -9.2553   -2.3293   -1.1890 C.ar      1 <0>        -0.1972
      8 C6         -8.1796   -2.3048   -0.3051 C.ar      1 <0>         0.1220
      9 C7         -8.2256   -3.0453    0.8732 C.ar      1 <0>        -0.1798
     10 C8         -9.3354   -3.7930    1.1718 C.ar      1 <0>        -0.0474
     11 N1         -7.0543   -1.5435   -0.6026 N.pl3     1 <0>        -0.2621
     12 C9         -6.2355   -1.0758    0.4272 C.2       1 <0>         0.1144
     13 N2         -5.0778   -0.4261    0.2651 N.2       1 <0>        -0.2828
     14 C10        -4.5653   -0.1343    1.4424 C.2       1 <0>        -0.1015
     15 N3         -5.4094   -0.5957    2.3899 N.pl3     1 <0>        -0.1816
     16 H1         -5.2987   -0.5241    3.3509 H         1 <0>         0.2831
     17 N4         -6.4792   -1.1991    1.7096 N.2       1 <0>        -0.1503
     18 S1         -3.0488    0.7153    1.7305 S.3       1 <0>         0.2447
     19 C11        -2.5160    0.9950    0.0234 C.3       1 <0>        -0.2166
     20 C12        -1.2001    1.7296    0.0218 C.ar      1 <0>        -0.0488
     21 C13         0.0001    1.0356    0.0319 C.ar      1 <0>        -0.1730
     22 C14         1.1873    1.7432    0.0247 C.ar      1 <0>        -0.0434
     23 N5          1.1864    3.0619    0.0135 N.ar      1 <0>        -0.1568
     24 C15         0.0644    3.7546    0.0087 C.ar      1 <0>        -0.0434
     25 C16        -1.1610    3.1155    0.0149 C.ar      1 <0>        -0.1729
     26 H2        -12.7726   -6.6353    2.9404 H         1 <0>         0.1012
     27 H3        -13.7231   -5.4396    2.0265 H         1 <0>         0.0822
     28 H4        -13.0027   -6.8338    1.1866 H         1 <0>         0.0818
     29 H5        -11.2004   -3.0967   -1.5844 H         1 <0>         0.1565
     30 H6         -9.2147   -1.7570   -2.1040 H         1 <0>         0.1373
     31 H7         -7.3880   -3.0274    1.5546 H         1 <0>         0.1679
     32 H8         -9.3722   -4.3639    2.0879 H         1 <0>         0.1501
     33 H9         -6.8383   -1.3374   -1.5255 H         1 <0>         0.2586
     34 H10        -3.2652    1.5906   -0.4981 H         1 <0>         0.1311
     35 H11        -2.3976    0.0365   -0.4819 H         1 <0>         0.1309
     36 H12         0.0073   -0.0443    0.0407 H         1 <0>         0.1441
     37 H13         2.1265    1.2101    0.0280 H         1 <0>         0.1641
     38 H14         0.1034    4.8339   -0.0005 H         1 <0>         0.1641
     39 H15        -2.0765    3.6884    0.0102 H         1 <0>         0.1442
@<TRIPOS>BOND
     1    1    2 1
     2    1   26 1
     3    1   27 1
     4    1   28 1
     5    2    3 1
     6    3    4 2
     7    3    5 1
     8    5   10 ar
     9    5    6 ar
    10    6    7 ar
    11    6   29 1
    12    7    8 ar
    13    7   30 1
    14    8    9 ar
    15    8   11 1
    16    9   10 ar
    17    9   31 1
    18   10   32 1
    19   11   12 1
    20   11   33 1
    21   12   17 2
    22   12   13 1
    23   13   14 2
    24   14   15 1
    25   14   18 1
    26   15   16 1
    27   15   17 1
    28   18   19 1
    29   19   20 1
    30   19   34 1
    31   19   35 1
    32   20   25 ar
    33   20   21 ar
    34   21   22 ar
    35   21   36 1
    36   22   23 ar
    37   22   37 1
    38   23   24 ar
    39   24   25 ar
    40   24   38 1
    41   25   39 1
@<TRIPOS>MOLECULE
ZINC00029692
   41    42     0     0     0
SMALL
USER_CHARGES

@<TRIPOS>ATOM
      1 C1          3.0558   -2.0162   -2.4398 C.3       1 <0>        -0.2122
      2 C2          3.2971   -0.5523   -2.0660 C.3       1 <0>        -0.0144
      3 O1          2.1392   -0.0310   -1.4105 O.3       1 <0>        -0.2162
      4 C3          2.1888    1.2679   -1.0098 C.ar      1 <0>         0.0753
      5 C4          3.3260    2.0233   -1.2428 C.ar      1 <0>        -0.2029
      6 C5          3.3747    3.3439   -0.8356 C.ar      1 <0>        -0.1081
      7 C6          2.2901    3.9143   -0.1956 C.ar      1 <0>        -0.1414
      8 C7          1.1496    3.1687    0.0364 C.ar      1 <0>        -0.1514
      9 C8          1.0956    1.8417   -0.3645 C.ar      1 <0>         0.0408
     10 N1         -0.0563    1.0831   -0.1264 N.pl3     1 <0>        -0.8004
     11 S1         -1.5494    1.7931   -0.2204 S.o2      1 <0>         2.7656
     12 O2         -2.5045    0.7516   -0.0708 O.2       1 <0>        -0.9111
     13 O3         -1.5157    2.9249    0.6381 O.2       1 <0>        -0.9201
     14 C9         -1.7304    2.4105   -1.8607 C.ar      1 <0>        -0.7755
     15 C10        -1.3307    3.6999   -2.1606 C.ar      1 <0>        -0.0075
     16 C11        -1.4667    4.1852   -3.4465 C.ar      1 <0>        -0.1870
     17 C12        -2.0149    3.3803   -4.4365 C.ar      1 <0>         0.1159
     18 C13        -2.4201    2.0876   -4.1309 C.ar      1 <0>        -0.1529
     19 C14        -2.2770    1.6066   -2.8442 C.ar      1 <0>        -0.0062
     20 N2         -2.1581    3.8704   -5.7392 N.am      1 <0>        -0.3335
     21 C15        -3.2198    3.5040   -6.4841 C.2       1 <0>         0.3017
     22 O4         -4.0051    2.6835   -6.0585 O.2       1 <0>        -0.3464
     23 C16        -3.4313    4.1137   -7.8459 C.3       1 <0>        -0.2386
     24 H1          3.9389   -2.4139   -2.9397 H         1 <0>         0.0876
     25 H2          2.8583   -2.5939   -1.5368 H         1 <0>         0.0891
     26 H3          2.1981   -2.0837   -3.1090 H         1 <0>         0.0890
     27 H4          3.4945    0.0255   -2.9689 H         1 <0>         0.0743
     28 H5          4.1547   -0.4848   -1.3967 H         1 <0>         0.0751
     29 H6          4.1749    1.5809   -1.7428 H         1 <0>         0.1371
     30 H7          4.2623    3.9315   -1.0185 H         1 <0>         0.1309
     31 H8          2.3326    4.9462    0.1203 H         1 <0>         0.1363
     32 H9          0.3022    3.6179    0.5329 H         1 <0>         0.1864
     33 H10         0.0198    0.1406    0.0898 H         1 <0>         0.2606
     34 H11        -0.9083    4.3269   -1.3893 H         1 <0>         0.1506
     35 H12        -1.1506    5.1910   -3.6810 H         1 <0>         0.1348
     36 H13        -2.8464    1.4590   -4.8987 H         1 <0>         0.1709
     37 H14        -2.5919    0.6014   -2.6059 H         1 <0>         0.1545
     38 H15        -1.4933    4.4739   -6.1061 H         1 <0>         0.2350
     39 H16        -2.9253    3.5080   -8.5978 H         1 <0>         0.1074
     40 H17        -4.4982    4.1498   -8.0662 H         1 <0>         0.1216
     41 H18        -3.0233    5.1244   -7.8588 H         1 <0>         0.0855
@<TRIPOS>BOND
     1    1    2 1
     2    1   24 1
     3    1   25 1
     4    1   26 1
     5    2    3 1
     6    2   27 1
     7    2   28 1
     8    3    4 1
     9    4    9 ar
    10    4    5 ar
    11    5    6 ar
    12    5   29 1
    13    6    7 ar
    14    6   30 1
    15    7    8 ar
    16    7   31 1
    17    8    9 ar
    18    8   32 1
    19    9   10 1
    20   10   11 1
    21   10   33 1
    22   11   12 2
    23   11   13 2
    24   11   14 1
    25   14   19 ar
    26   14   15 ar
    27   15   16 ar
    28   15   34 1
    29   16   17 ar
    30   16   35 1
    31   17   18 ar
    32   17   20 1
    33   18   19 ar
    34   18   36 1
    35   19   37 1
    36   20   21 am
    37   20   38 1
    38   21   22 2
    39   21   23 1
    40   23   39 1
    41   23   40 1
    42   23   41 1
@<TRIPOS>MOLECULE
ZINC00029692
   40    41     0     0     0
SMALL
USER_CHARGES

@<TRIPOS>ATOM
      1 C1          3.0558   -2.0162   -2.4398 C.3       1 <0>        -0.2092
      2 C2          3.2971   -0.5523   -2.0660 C.3       1 <0>        -0.0168
      3 O1          2.1392   -0.0310   -1.4105 O.3       1 <0>        -0.1750
      4 C3          2.1888    1.2679   -1.0098 C.ar      1 <0>         0.0544
      5 C4          3.3260    2.0233   -1.2428 C.ar      1 <0>        -0.2165
      6 C5          3.3747    3.3439   -0.8356 C.ar      1 <0>        -0.1836
      7 C6          2.2901    3.9143   -0.1956 C.ar      1 <0>        -0.1409
      8 C7          1.1496    3.1687    0.0364 C.ar      1 <0>        -0.2216
      9 C8          1.0956    1.8417   -0.3645 C.ar      1 <0>         0.0837
     10 S1         -1.5494    1.7931   -0.2204 S.o2      1 <0>         2.5869
     11 O2         -2.5045    0.7516   -0.0708 O.2       1 <0>        -0.9561
     12 O3         -1.5157    2.9249    0.6381 O.2       1 <0>        -1.0030
     13 C9         -1.7304    2.4105   -1.8607 C.ar      1 <0>        -0.7117
     14 C10        -1.3307    3.6999   -2.1606 C.ar      1 <0>        -0.0228
     15 C11        -1.4667    4.1852   -3.4465 C.ar      1 <0>        -0.1918
     16 C12        -2.0149    3.3803   -4.4365 C.ar      1 <0>         0.0639
     17 C13        -2.4201    2.0876   -4.1309 C.ar      1 <0>        -0.1595
     18 C14        -2.2770    1.6066   -2.8442 C.ar      1 <0>        -0.0176
     19 N1         -2.1581    3.8704   -5.7392 N.am      1 <0>        -0.3251
     20 C15        -3.2198    3.5040   -6.4841 C.2       1 <0>         0.2956
     21 O4         -4.0051    2.6835   -6.0585 O.2       1 <0>        -0.3554
     22 C16        -3.4313    4.1137   -7.8459 C.3       1 <0>        -0.2413
     23 H1          3.9389   -2.4139   -2.9397 H         1 <0>         0.0594
     24 H2          2.8583   -2.5939   -1.5368 H         1 <0>         0.0861
     25 H3          2.1981   -2.0837   -3.1090 H         1 <0>         0.0853
     26 H4          3.4945    0.0255   -2.9689 H         1 <0>         0.0564
     27 H5          4.1547   -0.4848   -1.3967 H         1 <0>         0.0576
     28 H6          4.1749    1.5809   -1.7428 H         1 <0>         0.1049
     29 H7          4.2623    3.9315   -1.0185 H         1 <0>         0.0958
     30 H8          2.3326    4.9462    0.1203 H         1 <0>         0.1005
     31 H9          0.3022    3.6179    0.5329 H         1 <0>         0.1776
     32 H10        -0.9083    4.3269   -1.3893 H         1 <0>         0.1514
     33 H11        -1.1506    5.1910   -3.6810 H         1 <0>         0.1129
     34 H12        -2.8464    1.4590   -4.8987 H         1 <0>         0.1492
     35 H13        -2.5919    0.6014   -2.6059 H         1 <0>         0.1546
     36 H14        -1.4933    4.4739   -6.1061 H         1 <0>         0.2233
     37 H15        -2.9253    3.5080   -8.5978 H         1 <0>         0.0974
     38 H16        -4.4982    4.1498   -8.0662 H         1 <0>         0.1091
     39 H17        -3.0233    5.1244   -7.8588 H         1 <0>         0.0781
     40 N2         -0.0470    1.0079   -0.1090 N.2       1 <0>        -0.8362
@<TRIPOS>BOND
     1    1    2 1
     2    1   23 1
     3    1   24 1
     4    1   25 1
     5    2    3 1
     6    2   26 1
     7    2   27 1
     8    3    4 1
     9    4    9 ar
    10    4    5 ar
    11    5    6 ar
    12    5   28 1
    13    6    7 ar
    14    6   29 1
    15    7    8 ar
    16    7   30 1
    17    8    9 ar
    18    8   31 1
    19    9   40 1
    20   10   11 2
    21   10   12 2
    22   10   13 1
    23   10   40 1
    24   13   18 ar
    25   13   14 ar
    26   14   15 ar
    27   14   32 1
    28   15   16 ar
    29   15   33 1
    30   16   17 ar
    31   16   19 1
    32   17   18 ar
    33   17   34 1
    34   18   35 1
    35   19   20 am
    36   19   36 1
    37   20   21 2
    38   20   22 1
    39   22   37 1
    40   22   38 1
    41   22   39 1
@<TRIPOS>MOLECULE
ZINC00029693
   41    42     0     0     0
SMALL
USER_CHARGES

@<TRIPOS>ATOM
      1 C1         -2.1818   -0.0307   -0.5651 C.3       1 <0>        -0.2408
      2 C2         -2.1981    1.4762   -0.5643 C.2       1 <0>         0.3015
      3 O1         -3.1169    2.0730   -1.0847 O.2       1 <0>        -0.3458
      4 N1         -1.1946    2.1607    0.0195 N.am      1 <0>        -0.3339
      5 C3         -1.1591    3.5571   -0.0634 C.ar      1 <0>         0.1135
      6 C4          0.0588    4.2180   -0.1556 C.ar      1 <0>        -0.1876
      7 C5          0.0901    5.5960   -0.2430 C.ar      1 <0>        -0.0137
      8 C6         -1.0890    6.3182   -0.2270 C.ar      1 <0>        -0.7760
      9 C7         -2.3031    5.6634   -0.1300 C.ar      1 <0>        -0.0075
     10 C8         -2.3415    4.2853   -0.0480 C.ar      1 <0>        -0.1528
     11 S1         -1.0444    8.0766   -0.3308 S.o2      1 <0>         2.7625
     12 O2          0.1827    8.4151   -0.9625 O.2       1 <0>        -0.9203
     13 O3         -2.3043    8.4851   -0.8456 O.2       1 <0>        -0.9171
     14 N2         -0.9552    8.6564    1.2178 N.pl3     1 <0>        -0.8759
     15 C9          0.2271    8.3785    2.0370 C.3       1 <0>         0.0476
     16 C10         0.2368    9.2961    3.2325 C.ar      1 <0>        -0.1292
     17 C11         1.0364   10.4229    3.2327 C.ar      1 <0>        -0.0733
     18 C12         1.0422   11.2676    4.3271 C.ar      1 <0>        -0.1677
     19 C13         0.2561   10.9816    5.4283 C.ar      1 <0>        -0.0815
     20 C14        -0.5410    9.8536    5.4351 C.ar      1 <0>        -0.2222
     21 C15        -0.5526    9.0071    4.3358 C.ar      1 <0>         0.1057
     22 O4         -1.3357    7.8964    4.3403 O.3       1 <0>        -0.2113
     23 C16        -2.1222    7.6618    5.5101 C.3       1 <0>        -0.0639
     24 H1         -3.0704   -0.4034   -1.0747 H         1 <0>         0.1217
     25 H2         -1.2905   -0.3841   -1.0836 H         1 <0>         0.0987
     26 H3         -2.1728   -0.3945    0.4623 H         1 <0>         0.0956
     27 H4         -0.4969    1.6854    0.4971 H         1 <0>         0.2345
     28 H5          0.9802    3.6547   -0.1629 H         1 <0>         0.1339
     29 H6          1.0367    6.1103   -0.3196 H         1 <0>         0.1492
     30 H7         -3.2223    6.2303   -0.1181 H         1 <0>         0.1544
     31 H8         -3.2901    3.7745    0.0277 H         1 <0>         0.1706
     32 H9         -1.6858    9.1801    1.5824 H         1 <0>         0.2493
     33 H10         0.1999    7.3425    2.3745 H         1 <0>         0.0886
     34 H11         1.1268    8.5442    1.4445 H         1 <0>         0.0993
     35 H12         1.6543   10.6462    2.3755 H         1 <0>         0.1424
     36 H13         1.6647   12.1500    4.3237 H         1 <0>         0.1344
     37 H14         0.2657   11.6407    6.2838 H         1 <0>         0.1319
     38 H15        -1.1545    9.6306    6.2955 H         1 <0>         0.1366
     39 H16        -1.4662    7.5611    6.3748 H         1 <0>         0.0689
     40 H17        -2.8017    8.4999    5.6651 H         1 <0>         0.0702
     41 H18        -2.6986    6.7455    5.3827 H         1 <0>         0.1097
@<TRIPOS>BOND
     1    1    2 1
     2    1   24 1
     3    1   25 1
     4    1   26 1
     5    2    3 2
     6    2    4 am
     7    4    5 1
     8    4   27 1
     9    5   10 ar
    10    5    6 ar
    11    6    7 ar
    12    6   28 1
    13    7    8 ar
    14    7   29 1
    15    8    9 ar
    16    8   11 1
    17    9   10 ar
    18    9   30 1
    19   10   31 1
    20   11   12 2
    21   11   13 2
    22   11   14 1
    23   14   15 1
    24   14   32 1
    25   15   16 1
    26   15   33 1
    27   15   34 1
    28   16   21 ar
    29   16   17 ar
    30   17   18 ar
    31   17   35 1
    32   18   19 ar
    33   18   36 1
    34   19   20 ar
    35   19   37 1
    36   20   21 ar
    37   20   38 1
    38   21   22 1
    39   22   23 1
    40   23   39 1
    41   23   40 1
    42   23   41 1
@<TRIPOS>MOLECULE
ZINC00029703
   40    41     0     0     0
SMALL
USER_CHARGES

@<TRIPOS>ATOM
      1 C1          1.3565   -0.9598   -0.7277 C.3       1 <0>        -0.2385
      2 C2          0.0404   -0.2373   -0.5980 C.2       1 <0>         0.3018
      3 O1         -0.9725   -0.7384   -1.0383 O.2       1 <0>        -0.3460
      4 N1         -0.0111    0.9658    0.0074 N.am      1 <0>        -0.3337
      5 C3         -1.2149    1.6779    0.0476 C.ar      1 <0>         0.1148
      6 C4         -1.2062    3.0644   -0.0300 C.ar      1 <0>        -0.1872
      7 C5         -2.3967    3.7639    0.0033 C.ar      1 <0>        -0.0128
      8 C6         -3.5955    3.0858    0.1265 C.ar      1 <0>        -0.7792
      9 C7         -3.6072    1.7055    0.2101 C.ar      1 <0>        -0.0097
     10 C8         -2.4206    0.9998    0.1708 C.ar      1 <0>        -0.1528
     11 S1         -5.1115    3.9824    0.1765 S.o2      1 <0>         2.7633
     12 O2         -4.8696    5.2256   -0.4677 O.2       1 <0>        -0.9158
     13 O3         -6.1275    3.0866   -0.2533 O.2       1 <0>        -0.9160
     14 N2         -5.4250    4.3260    1.7659 N.pl3     1 <0>        -0.8859
     15 C9         -4.5313    5.2144    2.5132 C.3       1 <0>        -0.0018
     16 C10        -5.2207    5.6637    3.8031 C.3       1 <0>        -0.1293
     17 C11        -4.3015    6.5775    4.5719 C.ar      1 <0>        -0.0822
     18 C12        -3.4249    6.0523    5.5029 C.ar      1 <0>        -0.1238
     19 C13        -2.5784    6.8901    6.2046 C.ar      1 <0>        -0.1266
     20 C14        -2.6153    8.2540    5.9825 C.ar      1 <0>        -0.1272
     21 C15        -3.4958    8.7797    5.0556 C.ar      1 <0>        -0.1246
     22 C16        -4.3387    7.9414    4.3501 C.ar      1 <0>        -0.1200
     23 H1          1.5095   -1.5955    0.1444 H         1 <0>         0.1075
     24 H2          1.3465   -1.5742   -1.6280 H         1 <0>         0.1219
     25 H3          2.1655   -0.2322   -0.7933 H         1 <0>         0.0857
     26 H4          0.7855    1.3363    0.4186 H         1 <0>         0.2351
     27 H5         -0.2699    3.5948   -0.1210 H         1 <0>         0.1353
     28 H6         -2.3910    4.8418   -0.0625 H         1 <0>         0.1507
     29 H7         -4.5451    1.1788    0.3060 H         1 <0>         0.1541
     30 H8         -2.4304   -0.0782    0.2354 H         1 <0>         0.1711
     31 H9         -6.2002    3.9391    2.2020 H         1 <0>         0.2440
     32 H10        -3.6122    4.6824    2.7588 H         1 <0>         0.0773
     33 H11        -4.2945    6.0872    1.9048 H         1 <0>         0.1040
     34 H12        -6.1398    6.1957    3.5575 H         1 <0>         0.0995
     35 H13        -5.4575    4.7909    4.4115 H         1 <0>         0.0920
     36 H14        -3.3990    4.9872    5.6794 H         1 <0>         0.1294
     37 H15        -1.8907    6.4794    6.9291 H         1 <0>         0.1297
     38 H16        -1.9565    8.9088    6.5334 H         1 <0>         0.1299
     39 H17        -3.5249    9.8453    4.8823 H         1 <0>         0.1317
     40 H18        -5.0266    8.3522    3.6259 H         1 <0>         0.1341
@<TRIPOS>BOND
     1    1    2 1
     2    1   23 1
     3    1   24 1
     4    1   25 1
     5    2    3 2
     6    2    4 am
     7    4    5 1
     8    4   26 1
     9    5   10 ar
    10    5    6 ar
    11    6    7 ar
    12    6   27 1
    13    7    8 ar
    14    7   28 1
    15    8    9 ar
    16    8   11 1
    17    9   10 ar
    18    9   29 1
    19   10   30 1
    20   11   12 2
    21   11   13 2
    22   11   14 1
    23   14   15 1
    24   14   31 1
    25   15   16 1
    26   15   32 1
    27   15   33 1
    28   16   17 1
    29   16   34 1
    30   16   35 1
    31   17   22 ar
    32   17   18 ar
    33   18   19 ar
    34   18   36 1
    35   19   20 ar
    36   19   37 1
    37   20   21 ar
    38   20   38 1
    39   21   22 ar
    40   21   39 1
    41   22   40 1
@<TRIPOS>MOLECULE
ZINC00030061
   42    43     0     0     0
SMALL
USER_CHARGES

@<TRIPOS>ATOM
      1 C1          8.2153    3.9072   -1.2967 C.3       1 <0>        -0.2155
      2 C2          7.0516    4.6615   -0.6504 C.3       1 <0>        -0.0037
      3 O1          5.8620    3.8293   -0.6752 O.3       1 <0>        -0.2685
      4 C3          4.7400    4.3498   -0.1405 C.2       1 <0>         0.3534
      5 O2          4.7552    5.4685    0.3335 O.2       1 <0>        -0.3686
      6 C4          3.4937    3.5618   -0.1306 C.ar      1 <0>        -0.1349
      7 C5          2.3286    4.1003    0.4238 C.ar      1 <0>        -0.0482
      8 C6          1.1670    3.3622    0.4310 C.ar      1 <0>        -0.1821
      9 C7          1.1512    2.0812   -0.1128 C.ar      1 <0>         0.0937
     10 C8          2.3106    1.5398   -0.6604 C.ar      1 <0>        -0.1464
     11 C9          3.4743    2.2746   -0.6760 C.ar      1 <0>        -0.0612
     12 N1         -0.0264    1.3368   -0.1038 N.am      1 <0>        -0.3266
     13 C10         0.0209    0.0030    0.0839 C.2       1 <0>         0.3529
     14 O3          1.0945   -0.5624    0.1613 O.2       1 <0>        -0.3519
     15 C11        -1.2303   -0.7711    0.1954 C.ar      1 <0>        -0.1542
     16 C12        -2.4654   -0.1220    0.1124 C.ar      1 <0>        -0.0846
     17 C13        -3.6308   -0.8481    0.2116 C.ar      1 <0>        -0.1742
     18 C14        -3.5801   -2.2249    0.4058 C.ar      1 <0>         0.0932
     19 C15        -2.3524   -2.8735    0.4942 C.ar      1 <0>        -0.1405
     20 C16        -1.1831   -2.1544    0.3901 C.ar      1 <0>        -0.0432
     21 N2         -4.7625   -2.9564    0.5117 N.am      1 <0>        -0.3315
     22 C17        -4.8203   -4.2163    0.0365 C.2       1 <0>         0.3003
     23 O4         -3.8755   -4.6815   -0.5649 O.2       1 <0>        -0.3448
     24 C18        -6.0591   -5.0469    0.2523 C.3       1 <0>        -0.2410
     25 H1          8.4039    2.9872   -0.7434 H         1 <0>         0.0866
     26 H2          7.9627    3.6651   -2.3290 H         1 <0>         0.0857
     27 H3          9.1083    4.5320   -1.2781 H         1 <0>         0.0883
     28 H4          6.8629    5.5815   -1.2037 H         1 <0>         0.0883
     29 H5          7.3042    4.9037    0.3819 H         1 <0>         0.0892
     30 H6          2.3401    5.0945    0.8456 H         1 <0>         0.1559
     31 H7          0.2666    3.7776    0.8587 H         1 <0>         0.1349
     32 H8          2.2959    0.5437   -1.0775 H         1 <0>         0.1710
     33 H9          4.3724    1.8557   -1.1054 H         1 <0>         0.1526
     34 H10        -0.8800    1.7779   -0.2367 H         1 <0>         0.2353
     35 H11        -2.5053    0.9473   -0.0336 H         1 <0>         0.1252
     36 H12        -4.5854   -0.3478    0.1431 H         1 <0>         0.1337
     37 H13        -2.3166   -3.9425    0.6442 H         1 <0>         0.1676
     38 H14        -0.2305   -2.6586    0.4584 H         1 <0>         0.1625
     39 H15        -5.5434   -2.5585    0.9274 H         1 <0>         0.2344
     40 H16        -6.9135   -4.5519   -0.2093 H         1 <0>         0.0967
     41 H17        -5.9209   -6.0294   -0.1990 H         1 <0>         0.1219
     42 H18        -6.2388   -5.1602    1.3214 H         1 <0>         0.0981
@<TRIPOS>BOND
     1    1    2 1
     2    1   25 1
     3    1   26 1
     4    1   27 1
     5    2    3 1
     6    2   28 1
     7    2   29 1
     8    3    4 1
     9    4    5 2
    10    4    6 1
    11    6   11 ar
    12    6    7 ar
    13    7    8 ar
    14    7   30 1
    15    8    9 ar
    16    8   31 1
    17    9   10 ar
    18    9   12 1
    19   10   11 ar
    20   10   32 1
    21   11   33 1
    22   12   13 am
    23   12   34 1
    24   13   14 2
    25   13   15 1
    26   15   20 ar
    27   15   16 ar
    28   16   17 ar
    29   16   35 1
    30   17   18 ar
    31   17   36 1
    32   18   19 ar
    33   18   21 1
    34   19   20 ar
    35   19   37 1
    36   20   38 1
    37   21   22 am
    38   21   39 1
    39   22   23 2
    40   22   24 1
    41   24   40 1
    42   24   41 1
    43   24   42 1
@<TRIPOS>MOLECULE
ZINC00030344
   46    47     0     0     0
SMALL
USER_CHARGES

@<TRIPOS>ATOM
      1 C1         -0.0941    8.1200    7.3378 C.3       1 <0>        -0.1979
      2 C2          1.1641    7.2878    7.0820 C.3       1 <0>        -0.0358
      3 C3          1.1882    6.0930    8.0374 C.3       1 <0>        -0.2044
      4 C4          2.4041    8.1529    7.3158 C.3       1 <0>        -0.1980
      5 C5          1.1581    6.7927    5.6586 C.ar      1 <0>        -0.0364
      6 C6          1.1369    7.6997    4.6140 C.ar      1 <0>        -0.1373
      7 C7          1.1314    7.2532    3.3088 C.ar      1 <0>        -0.0634
      8 C8          1.1475    5.8830    3.0431 C.ar      1 <0>        -0.1355
      9 C9          1.1639    4.9733    4.1016 C.ar      1 <0>        -0.1025
     10 C10         1.1742    5.4332    5.4022 C.ar      1 <0>        -0.1396
     11 C11         1.1412    5.3973    1.6467 C.2       1 <0>         0.3488
     12 O1          1.1218    6.1918    0.7270 O.2       1 <0>        -0.3699
     13 N1          1.1568    4.0736    1.3936 N.am      1 <0>        -0.3895
     14 C12         1.1505    3.5924    0.0099 C.3       1 <0>         0.0289
     15 C13         1.1709    2.0855    0.0021 C.ar      1 <0>        -0.0533
     16 C14        -0.0167    1.3781    0.0096 C.ar      1 <0>        -0.1376
     17 C15         0.0021   -0.0041    0.0020 C.ar      1 <0>        -0.0287
     18 C16         1.2084   -0.6789   -0.0132 C.ar      1 <0>        -0.7569
     19 C17         2.3961    0.0285   -0.0212 C.ar      1 <0>        -0.0288
     20 C18         2.3773    1.4107   -0.0145 C.ar      1 <0>        -0.1376
     21 S1          1.2323   -2.4407   -0.0217 S.o2      1 <0>         2.7614
     22 O2          2.4885   -2.8324    0.5148 O.2       1 <0>        -0.9154
     23 O3         -0.0018   -2.8663    0.5395 O.2       1 <0>        -0.9154
     24 N2          1.2232   -2.9228   -1.6059 N.pl3     1 <0>        -0.9305
     25 H1         -0.9775    7.5037    7.1712 H         1 <0>         0.0799
     26 H2         -0.0897    8.4781    8.3673 H         1 <0>         0.0775
     27 H3         -0.1113    8.9712    6.6571 H         1 <0>         0.0768
     28 H4          2.0845    5.5001    7.8552 H         1 <0>         0.0779
     29 H5          1.1925    6.4511    9.0669 H         1 <0>         0.0784
     30 H6          0.3047    5.4767    7.8708 H         1 <0>         0.0778
     31 H7          2.3869    9.0041    6.6352 H         1 <0>         0.0768
     32 H8          2.4084    8.5110    8.3453 H         1 <0>         0.0774
     33 H9          3.3004    7.5600    7.1336 H         1 <0>         0.0799
     34 H10         1.1244    8.7597    4.8209 H         1 <0>         0.1380
     35 H11         1.1149    7.9622    2.4942 H         1 <0>         0.1562
     36 H12         1.1720    3.9118    3.9028 H         1 <0>         0.1245
     37 H13         1.1906    4.7304    6.2221 H         1 <0>         0.1410
     38 H14         1.1723    3.4396    2.1276 H         1 <0>         0.2289
     39 H15         2.0306    3.9704   -0.5103 H         1 <0>         0.1037
     40 H16         0.2509    3.9462   -0.4937 H         1 <0>         0.1037
     41 H17        -0.9592    1.9054    0.0170 H         1 <0>         0.1446
     42 H18        -0.9258   -0.5567    0.0083 H         1 <0>         0.1561
     43 H19         3.3386   -0.4987   -0.0324 H         1 <0>         0.1561
     44 H20         3.3052    1.9634   -0.0205 H         1 <0>         0.1446
     45 H21         1.2072   -2.2605   -2.3144 H         1 <0>         0.2305
     46 H22         1.2339   -3.8676   -1.8254 H         1 <0>         0.2450
@<TRIPOS>BOND
     1    1    2 1
     2    1   25 1
     3    1   26 1
     4    1   27 1
     5    2    3 1
     6    2    4 1
     7    2    5 1
     8    3   28 1
     9    3   29 1
    10    3   30 1
    11    4   31 1
    12    4   32 1
    13    4   33 1
    14    5   10 ar
    15    5    6 ar
    16    6    7 ar
    17    6   34 1
    18    7    8 ar
    19    7   35 1
    20    8    9 ar
    21    8   11 1
    22    9   10 ar
    23    9   36 1
    24   10   37 1
    25   11   12 2
    26   11   13 am
    27   13   14 1
    28   13   38 1
    29   14   15 1
    30   14   39 1
    31   14   40 1
    32   15   20 ar
    33   15   16 ar
    34   16   17 ar
    35   16   41 1
    36   17   18 ar
    37   17   42 1
    38   18   19 ar
    39   18   21 1
    40   19   20 ar
    41   19   43 1
    42   20   44 1
    43   21   22 2
    44   21   23 2
    45   21   24 1
    46   24   45 1
    47   24   46 1
@<TRIPOS>MOLECULE
ZINC00030345
   42    43     0     0     0
SMALL
USER_CHARGES

@<TRIPOS>ATOM
      1 C1          1.2047    5.9886    0.1313 C.3       1 <0>        -0.0476
      2 N1         -0.0559    5.2493    0.0285 N.pl3     1 <0>        -0.3407
      3 C2         -1.3250    5.9749   -0.0666 C.3       1 <0>        -0.0548
      4 C3         -0.0477    3.8522    0.0211 C.ar      1 <0>         0.1171
      5 C4          1.1600    3.1642   -0.0089 C.ar      1 <0>        -0.1883
      6 C5          1.1733    1.7823   -0.0172 C.ar      1 <0>        -0.0896
      7 C6         -0.0123    1.0758    0.0041 C.ar      1 <0>        -0.1661
      8 C7         -1.2303    1.7570    0.0289 C.ar      1 <0>        -0.0833
      9 C8         -1.2439    3.1518    0.0432 C.ar      1 <0>        -0.1505
     10 C9         -2.5019    1.0026    0.0452 C.2       1 <0>         0.3487
     11 O1         -3.5615    1.5978    0.0668 O.2       1 <0>        -0.3722
     12 N2         -2.4860   -0.3451    0.0361 N.am      1 <0>        -0.3880
     13 C10        -3.7459   -1.0925    0.0522 C.3       1 <0>         0.0286
     14 C11        -3.4532   -2.5708    0.0377 C.ar      1 <0>        -0.0527
     15 C12        -3.3445   -3.2420   -1.1659 C.ar      1 <0>        -0.1374
     16 C13        -3.0717   -4.5971   -1.1793 C.ar      1 <0>        -0.0288
     17 C14        -2.9165   -5.2827    0.0110 C.ar      1 <0>        -0.7570
     18 C15        -3.0304   -4.6125    1.2146 C.ar      1 <0>        -0.0288
     19 C16        -3.2990   -3.2566    1.2280 C.ar      1 <0>        -0.1374
     20 S1         -2.5731   -7.0109   -0.0061 S.o2      1 <0>         2.7612
     21 O2         -1.9754   -7.2938   -1.2639 O.2       1 <0>        -0.9154
     22 O3         -1.9320   -7.3097    1.2264 O.2       1 <0>        -0.9154
     23 N3         -4.0290   -7.7996    0.0142 N.pl3     1 <0>        -0.9306
     24 H1          1.5974    6.1779   -0.8677 H         1 <0>         0.0659
     25 H2          1.0291    6.9374    0.6384 H         1 <0>         0.0795
     26 H3          1.9254    5.4007    0.6997 H         1 <0>         0.0831
     27 H4         -2.1519    5.2651   -0.0445 H         1 <0>         0.0994
     28 H5         -1.4141    6.6628    0.7742 H         1 <0>         0.0707
     29 H6         -1.3533    6.5367   -1.0002 H         1 <0>         0.0694
     30 H7          2.0909    3.7115   -0.0260 H         1 <0>         0.1345
     31 H8          2.1146    1.2533   -0.0409 H         1 <0>         0.1314
     32 H9          0.0024   -0.0040   -0.0028 H         1 <0>         0.1225
     33 H10        -2.1833    3.6843    0.0665 H         1 <0>         0.1588
     34 H11        -1.6405   -0.8201    0.0189 H         1 <0>         0.2310
     35 H12        -4.3056   -0.8418    0.9533 H         1 <0>         0.1032
     36 H13        -4.3353   -0.8302   -0.8263 H         1 <0>         0.1032
     37 H14        -3.4694   -2.7071   -2.0957 H         1 <0>         0.1446
     38 H15        -2.9823   -5.1207   -2.1197 H         1 <0>         0.1559
     39 H16        -2.9092   -5.1482    2.1445 H         1 <0>         0.1559
     40 H17        -3.3879   -2.7330    2.1683 H         1 <0>         0.1446
     41 H18        -4.8554   -7.2921    0.0319 H         1 <0>         0.2304
     42 H19        -4.0554   -8.7693    0.0085 H         1 <0>         0.2449
@<TRIPOS>BOND
     1    1    2 1
     2    1   24 1
     3    1   25 1
     4    1   26 1
     5    2    3 1
     6    2    4 1
     7    3   27 1
     8    3   28 1
     9    3   29 1
    10    4    9 ar
    11    4    5 ar
    12    5    6 ar
    13    5   30 1
    14    6    7 ar
    15    6   31 1
    16    7    8 ar
    17    7   32 1
    18    8    9 ar
    19    8   10 1
    20    9   33 1
    21   10   11 2
    22   10   12 am
    23   12   13 1
    24   12   34 1
    25   13   14 1
    26   13   35 1
    27   13   36 1
    28   14   19 ar
    29   14   15 ar
    30   15   16 ar
    31   15   37 1
    32   16   17 ar
    33   16   38 1
    34   17   18 ar
    35   17   20 1
    36   18   19 ar
    37   18   39 1
    38   19   40 1
    39   20   21 2
    40   20   22 2
    41   20   23 1
    42   23   41 1
    43   23   42 1
@<TRIPOS>MOLECULE
ZINC00030796
   40    41     0     0     0
SMALL
USER_CHARGES

@<TRIPOS>ATOM
      1 C1          1.5524   -6.1806   -1.5635 C.3       1 <0>        -0.2115
      2 C2          1.6430   -4.6543   -1.5066 C.3       1 <0>        -0.1551
      3 C3          2.4252   -4.2360   -0.2600 C.3       1 <0>        -0.0923
      4 H1          1.9639   -4.6772    0.6235 H         1 <0>         0.1129
      5 C4          3.8491   -4.7158   -0.3760 C.ar      1 <0>        -0.0678
      6 C5          4.6379   -4.2915   -1.4289 C.ar      1 <0>        -0.0919
      7 C6          5.9453   -4.7282   -1.5328 C.ar      1 <0>        -0.1257
      8 C7          6.4612   -5.5964   -0.5888 C.ar      1 <0>        -0.1219
      9 C8          5.6707   -6.0248    0.4612 C.ar      1 <0>        -0.1296
     10 C9          4.3647   -5.5847    0.5675 C.ar      1 <0>        -0.1188
     11 C10         2.4097   -2.7340   -0.1378 C.2       1 <0>         0.3041
     12 O1          3.4522   -2.1142   -0.1442 O.2       1 <0>        -0.3329
     13 N1          1.2373   -2.0795   -0.0214 N.am      1 <0>        -0.3331
     14 C11         1.2156   -0.6805   -0.0055 C.ar      1 <0>         0.1189
     15 C12         0.1613    0.0058   -0.5937 C.ar      1 <0>        -0.1896
     16 C13         0.1431    1.3867   -0.5767 C.ar      1 <0>        -0.0098
     17 C14         1.1732    2.0858    0.0252 C.ar      1 <0>        -0.7821
     18 C15         2.2244    1.4054    0.6118 C.ar      1 <0>        -0.0100
     19 C16         2.2485    0.0246    0.5982 C.ar      1 <0>        -0.1544
     20 S1          1.1464    3.8475    0.0442 S.o2      1 <0>         2.7633
     21 O2          2.4947    4.2726    0.1880 O.2       1 <0>        -0.9163
     22 O3          0.3321    4.2532   -1.0474 O.2       1 <0>        -0.9198
     23 N2          0.3546    4.3104    1.4230 N.pl3     1 <0>        -0.9319
     24 H2          0.9951   -6.4787   -2.4516 H         1 <0>         0.0786
     25 H3          2.5564   -6.6028   -1.6059 H         1 <0>         0.0900
     26 H4          1.0412   -6.5477   -0.6736 H         1 <0>         0.0715
     27 H5          0.6390   -4.2321   -1.4642 H         1 <0>         0.0748
     28 H6          2.1542   -4.2873   -2.3966 H         1 <0>         0.0981
     29 H7          4.2337   -3.6162   -2.1685 H         1 <0>         0.1359
     30 H8          6.5629   -4.3932   -2.3530 H         1 <0>         0.1322
     31 H9          7.4818   -5.9396   -0.6715 H         1 <0>         0.1294
     32 H10         6.0738   -6.7030    1.1988 H         1 <0>         0.1294
     33 H11         3.7471   -5.9194    1.3879 H         1 <0>         0.1254
     34 H12         0.4085   -2.5783    0.0514 H         1 <0>         0.2361
     35 H13        -0.6437   -0.5397   -1.0636 H         1 <0>         0.1364
     36 H14        -0.6743    1.9211   -1.0379 H         1 <0>         0.1540
     37 H15         3.0272    1.9544    1.0814 H         1 <0>         0.1575
     38 H16         3.0697   -0.5063    1.0568 H         1 <0>         0.1740
     39 H17         0.0117    3.6394    2.0338 H         1 <0>         0.2288
     40 H18         0.2337    5.2525    1.6198 H         1 <0>         0.2429
@<TRIPOS>BOND
     1    1    2 1
     2    1   24 1
     3    1   25 1
     4    1   26 1
     5    2    3 1
     6    2   27 1
     7    2   28 1
     8    3    4 1
     9    3    5 1
    10    3   11 1
    11    5   10 ar
    12    5    6 ar
    13    6    7 ar
    14    6   29 1
    15    7    8 ar
    16    7   30 1
    17    8    9 ar
    18    8   31 1
    19    9   10 ar
    20    9   32 1
    21   10   33 1
    22   11   12 2
    23   11   13 am
    24   13   14 1
    25   13   34 1
    26   14   19 ar
    27   14   15 ar
    28   15   16 ar
    29   15   35 1
    30   16   17 ar
    31   16   36 1
    32   17   18 ar
    33   17   20 1
    34   18   19 ar
    35   18   37 1
    36   19   38 1
    37   20   21 2
    38   20   22 2
    39   20   23 1
    40   23   39 1
    41   23   40 1
@<TRIPOS>MOLECULE
ZINC00030867
   38    39     0     0     0
SMALL
USER_CHARGES

@<TRIPOS>ATOM
      1 C1         -5.2063    9.5400    0.5234 C.3       1 <0>        -0.0719
      2 O1         -5.1037    8.1201    0.3987 O.3       1 <0>        -0.1637
      3 C2         -6.2638    7.4168    0.3940 C.ar      1 <0>         0.1744
      4 C3         -7.4760    8.0745    0.5022 C.ar      1 <0>        -0.2239
      5 C4         -8.6609    7.3475    0.5024 C.ar      1 <0>        -0.1225
      6 C5         -8.6319    5.9578    0.3887 C.ar      1 <0>        -0.2010
      7 C6         -7.4419    5.3000    0.2767 C.ar      1 <0>        -0.0494
      8 C7         -6.2404    6.0178    0.2748 C.ar      1 <0>        -0.1820
      9 C8         -4.9569    5.3084    0.1546 C.2       1 <0>         0.3518
     10 O2         -3.9139    5.9343    0.1532 O.2       1 <0>        -0.3271
     11 N1         -4.9369    3.9652    0.0460 N.am      1 <0>        -0.3309
     12 C9         -3.7211    3.2844    0.0431 C.ar      1 <0>         0.0946
     13 C10        -2.6551    3.7640    0.7982 C.ar      1 <0>        -0.1417
     14 C11        -1.4528    3.0936    0.7978 C.ar      1 <0>        -0.0461
     15 C12        -1.3033    1.9304    0.0377 C.ar      1 <0>        -0.1534
     16 C13        -2.3739    1.4549   -0.7244 C.ar      1 <0>        -0.0863
     17 C14        -3.5756    2.1263   -0.7145 C.ar      1 <0>        -0.1783
     18 C15        -0.0157    1.2091    0.0351 C.2       1 <0>         0.3521
     19 O3          0.9164    1.6267    0.6947 O.2       1 <0>        -0.3707
     20 N2          0.1252    0.0844   -0.6941 N.am      1 <0>        -0.4309
     21 S1        -10.2046    8.1845    0.6476 S.3       1 <0>         0.1720
     22 C16       -11.4331    6.8507    0.6014 C.3       1 <0>        -0.3225
     23 H1         -5.7860    9.9369   -0.3099 H         1 <0>         0.0696
     24 H2         -5.7026    9.7874    1.4618 H         1 <0>         0.0693
     25 H3         -4.2085    9.9786    0.5134 H         1 <0>         0.1186
     26 H4         -7.5016    9.1506    0.5904 H         1 <0>         0.1529
     27 H5         -9.5563    5.3993    0.3896 H         1 <0>         0.1353
     28 H6         -7.4270    4.2237    0.1897 H         1 <0>         0.1284
     29 H7         -5.7689    3.4723   -0.0302 H         1 <0>         0.2312
     30 H8         -2.7713    4.6630    1.3853 H         1 <0>         0.1682
     31 H9         -0.6261    3.4660    1.3846 H         1 <0>         0.1614
     32 H10        -2.2601    0.5589   -1.3167 H         1 <0>         0.1239
     33 H11        -4.4051    1.7563   -1.2989 H         1 <0>         0.1303
     34 H12         0.9702   -0.3918   -0.6927 H         1 <0>         0.2299
     35 H13        -0.6185   -0.2487   -1.2203 H         1 <0>         0.2142
     36 H14       -11.2575    6.1661    1.4313 H         1 <0>         0.1007
     37 H15       -12.4335    7.2750    0.6860 H         1 <0>         0.1235
     38 H16       -11.3465    6.3093   -0.3407 H         1 <0>         0.1004
@<TRIPOS>BOND
     1    1    2 1
     2    1   23 1
     3    1   24 1
     4    1   25 1
     5    2    3 1
     6    3    8 ar
     7    3    4 ar
     8    4    5 ar
     9    4   26 1
    10    5    6 ar
    11    5   21 1
    12    6    7 ar
    13    6   27 1
    14    7    8 ar
    15    7   28 1
    16    8    9 1
    17    9   10 2
    18    9   11 am
    19   11   12 1
    20   11   29 1
    21   12   17 ar
    22   12   13 ar
    23   13   14 ar
    24   13   30 1
    25   14   15 ar
    26   14   31 1
    27   15   16 ar
    28   15   18 1
    29   16   17 ar
    30   16   32 1
    31   17   33 1
    32   18   19 2
    33   18   20 am
    34   20   34 1
    35   20   35 1
    36   21   22 1
    37   22   36 1
    38   22   37 1
    39   22   38 1
@<TRIPOS>MOLECULE
ZINC00031246
   39    41     0     0     0
SMALL
USER_CHARGES

@<TRIPOS>ATOM
      1 C1         -1.1460   -4.8545   -0.0131 C.3       1 <0>        -0.0653
      2 O1         -2.4252   -4.2179    0.0030 O.3       1 <0>        -0.1981
      3 C2         -2.4381   -2.8580    0.0105 C.ar      1 <0>         0.0660
      4 C3         -1.2476   -2.1556    0.0024 C.ar      1 <0>        -0.1930
      5 C4         -1.2645   -0.7585    0.0101 C.ar      1 <0>        -0.0241
      6 C5         -2.4847   -0.0782    0.0312 C.ar      1 <0>        -0.1095
      7 C6         -3.6683   -0.7858    0.0334 C.ar      1 <0>        -0.1269
      8 C7         -3.6511   -2.1730    0.0258 C.ar      1 <0>         0.0596
      9 O2         -4.8208   -2.8656    0.0337 O.3       1 <0>        -0.2761
     10 C8          0.0021   -0.0041    0.0020 C.2       1 <0>        -0.1052
     11 N1         -0.0155    1.2937    0.0092 N.2       1 <0>         0.0136
     12 N2          1.1881    2.0106    0.0015 N.am      1 <0>        -0.3323
     13 C9          1.1698    3.3582    0.0089 C.2       1 <0>         0.2977
     14 O3          0.1111    3.9504    0.0222 O.2       1 <0>        -0.2825
     15 C10         2.4645    4.1294    0.0007 C.3       1 <0>         0.0008
     16 N3          2.1773    5.5659    0.0112 N.pl3     1 <0>         0.0028
     17 N4          2.0328    6.2716   -1.0560 N.2       1 <0>        -0.0971
     18 C11         1.7810    7.5238   -0.7099 C.ar      1 <0>        -0.1042
     19 C12         1.5339    8.7360   -1.3778 C.ar      1 <0>        -0.0719
     20 C13         1.3145    9.8653   -0.6552 C.ar      1 <0>        -0.1250
     21 C14         1.3274    9.8577    0.7400 C.ar      1 <0>        -0.1248
     22 C15         1.5599    8.7207    1.4462 C.ar      1 <0>        -0.0721
     23 C16         1.7946    7.5158    0.7606 C.ar      1 <0>        -0.1044
     24 N5          2.0479    6.2590    1.0884 N.2       1 <0>        -0.0974
     25 H1         -0.5829   -4.5611    0.8729 H         1 <0>         0.0646
     26 H2         -1.2786   -5.9364   -0.0176 H         1 <0>         0.1120
     27 H3         -0.6007   -4.5516   -0.9069 H         1 <0>         0.0684
     28 H4         -0.3066   -2.6855   -0.0102 H         1 <0>         0.1377
     29 H5         -2.5010    1.0016    0.0416 H         1 <0>         0.1644
     30 H6         -4.6109   -0.2588    0.0452 H         1 <0>         0.1513
     31 H7         -5.1506   -3.0704    0.9193 H         1 <0>         0.2279
     32 H8          0.9446   -0.5313   -0.0098 H         1 <0>         0.1152
     33 H9          2.0346    1.5371   -0.0091 H         1 <0>         0.2051
     34 H10         3.0481    3.8691    0.8838 H         1 <0>         0.1371
     35 H11         3.0311    3.8787   -0.8961 H         1 <0>         0.1375
     36 H12         1.5182    8.7691   -2.4572 H         1 <0>         0.1412
     37 H13         1.1249   10.7932   -1.1743 H         1 <0>         0.1331
     38 H14         1.1474   10.7799    1.2726 H         1 <0>         0.1330
     39 H15         1.5647    8.7421    2.5259 H         1 <0>         0.1410
@<TRIPOS>BOND
     1    1    2 1
     2    1   25 1
     3    1   26 1
     4    1   27 1
     5    2    3 1
     6    3    8 ar
     7    3    4 ar
     8    4    5 ar
     9    4   28 1
    10    5    6 ar
    11    5   10 1
    12    6    7 ar
    13    6   29 1
    14    7    8 ar
    15    7   30 1
    16    8    9 1
    17    9   31 1
    18   10   11 2
    19   10   32 1
    20   11   12 1
    21   12   13 am
    22   12   33 1
    23   13   14 2
    24   13   15 1
    25   15   16 1
    26   15   34 1
    27   15   35 1
    28   16   24 1
    29   16   17 1
    30   17   18 2
    31   18   23 ar
    32   18   19 ar
    33   19   20 ar
    34   19   36 1
    35   20   21 ar
    36   20   37 1
    37   21   22 ar
    38   21   38 1
    39   22   23 ar
    40   22   39 1
    41   23   24 2
@<TRIPOS>MOLECULE
ZINC00031648
   41    42     0     0     0
SMALL
USER_CHARGES

@<TRIPOS>ATOM
      1 C1         -2.2943   -0.3727    0.0100 C.3       1 <0>        -0.0633
      2 O1         -2.3918    1.0529    0.0187 O.3       1 <0>        -0.2065
      3 C2         -1.2258    1.7511    0.0174 C.ar      1 <0>         0.0883
      4 C3         -0.0126    1.0758    0.0080 C.ar      1 <0>        -0.2006
      5 C4          1.1766    1.7808    0.0004 C.ar      1 <0>        -0.0980
      6 C5          1.1657    3.1608    0.0074 C.ar      1 <0>        -0.1479
      7 C6         -0.0488    3.8483    0.0227 C.ar      1 <0>        -0.0920
      8 C7         -1.2481    3.1355    0.0308 C.ar      1 <0>        -0.0968
      9 C8         -0.0643    5.3268    0.0308 C.2       1 <0>         0.3473
     10 O2         -1.1233    5.9233    0.0441 O.2       1 <0>        -0.3597
     11 N1          1.0957    6.0129    0.0234 N.am      1 <0>        -0.3933
     12 C9          1.0803    7.4778    0.0314 C.3       1 <0>         0.0002
     13 C10         2.5172    8.0031    0.0205 C.3       1 <0>        -0.1506
     14 C11         2.5014    9.5099    0.0288 C.ar      1 <0>        -0.0190
     15 C12         2.4884   10.2076   -1.1646 C.ar      1 <0>        -0.1469
     16 C13         2.4694   11.5898   -1.1570 C.ar      1 <0>        -0.0225
     17 C14         2.4727   12.2745    0.0439 C.ar      1 <0>        -0.7627
     18 C15         2.4909   11.5769    1.2372 C.ar      1 <0>        -0.0225
     19 C16         2.5055   10.1946    1.2297 C.ar      1 <0>        -0.1468
     20 S1          2.4529   14.0363    0.0536 S.o2      1 <0>         2.7616
     21 O3          1.8866   14.4429   -1.1847 O.2       1 <0>        -0.9155
     22 O4          1.9085   14.4295    1.3059 O.2       1 <0>        -0.9155
     23 N2          4.0292   14.5437    0.0424 N.pl3     1 <0>        -0.9314
     24 H1         -1.7528   -0.7053    0.8956 H         1 <0>         0.0681
     25 H2         -3.2948   -0.8053    0.0121 H         1 <0>         0.1117
     26 H3         -1.7610   -0.6950   -0.8843 H         1 <0>         0.0681
     27 H4          0.0021   -0.0041    0.0020 H         1 <0>         0.1375
     28 H5          2.1170    1.2499   -0.0114 H         1 <0>         0.1327
     29 H6          2.0966    3.7084    0.0008 H         1 <0>         0.1232
     30 H7         -2.1911    3.6619    0.0426 H         1 <0>         0.1714
     31 H8          1.9407    5.5369    0.0128 H         1 <0>         0.2231
     32 H9          0.5542    7.8405   -0.8516 H         1 <0>         0.1014
     33 H10         0.5711    7.8309    0.9282 H         1 <0>         0.1014
     34 H11         3.0433    7.6404    0.9036 H         1 <0>         0.0959
     35 H12         3.0263    7.6500   -0.8762 H         1 <0>         0.0958
     36 H13         2.4896    9.6727   -2.1028 H         1 <0>         0.1403
     37 H14         2.4548   12.1347   -2.0893 H         1 <0>         0.1549
     38 H15         2.4935   12.1118    2.1754 H         1 <0>         0.1549
     39 H16         2.5198    9.6497    2.1620 H         1 <0>         0.1403
     40 H17         4.7482   13.8927    0.0326 H         1 <0>         0.2293
     41 H18         4.2335   15.4920    0.0457 H         1 <0>         0.2441
@<TRIPOS>BOND
     1    1    2 1
     2    1   24 1
     3    1   25 1
     4    1   26 1
     5    2    3 1
     6    3    8 ar
     7    3    4 ar
     8    4    5 ar
     9    4   27 1
    10    5    6 ar
    11    5   28 1
    12    6    7 ar
    13    6   29 1
    14    7    8 ar
    15    7    9 1
    16    8   30 1
    17    9   10 2
    18    9   11 am
    19   11   12 1
    20   11   31 1
    21   12   13 1
    22   12   32 1
    23   12   33 1
    24   13   14 1
    25   13   34 1
    26   13   35 1
    27   14   19 ar
    28   14   15 ar
    29   15   16 ar
    30   15   36 1
    31   16   17 ar
    32   16   37 1
    33   17   18 ar
    34   17   20 1
    35   18   19 ar
    36   18   38 1
    37   19   39 1
    38   20   21 2
    39   20   22 2
    40   20   23 1
    41   23   40 1
    42   23   41 1
@<TRIPOS>MOLECULE
ZINC00033458
   41    44     0     0     0
SMALL
USER_CHARGES

@<TRIPOS>ATOM
      1 C1         -1.2158    1.7509    0.0173 C.ar      1 <0>        -0.1141
      2 C2         -1.2433    3.1376    0.0301 C.ar      1 <0>        -0.1436
      3 C3         -0.0710    3.8598    0.0232 C.ar      1 <0>        -0.0736
      4 C4          1.1558    3.1913    0.0082 C.ar      1 <0>        -0.0379
      5 C5          1.1777    1.7869    0.0004 C.ar      1 <0>        -0.0415
      6 C6         -0.0126    1.0758    0.0080 C.ar      1 <0>        -0.1274
      7 N1          2.5141    1.4221   -0.0139 N.pl3     1 <0>        -0.2067
      8 H1          2.8743    0.4893   -0.0222 H         1 <0>         0.2604
      9 C7          3.2483    2.5745   -0.0145 C.2       1 <0>        -0.1085
     10 N2          2.4477    3.6120   -0.0014 N.2       1 <0>        -0.1943
     11 S1          5.0084    2.6537   -0.0303 S.3       1 <0>         0.2582
     12 C8          5.2423    4.4485   -0.0227 C.3       1 <0>        -0.1929
     13 C9          6.7161    4.7631   -0.0346 C.ar      1 <0>         0.1552
     14 N3          7.3500    4.9069   -1.1854 N.ar      1 <0>        -0.3296
     15 C10         8.6515    5.1852   -1.2000 C.ar      1 <0>         0.2705
     16 N4          9.3134    5.3185   -0.0556 N.ar      1 <0>        -0.3632
     17 C11         8.6727    5.1732    1.0990 C.ar      1 <0>         0.2198
     18 N5          7.3699    4.8999    1.1055 N.ar      1 <0>        -0.3061
     19 N6          9.3558    5.3107    2.2901 N.pl3     1 <0>        -0.1677
     20 C12         8.7365    6.3408    3.1367 C.3       1 <0>        -0.1005
     21 C13         9.4875    6.4184    4.4686 C.3       1 <0>        -0.0157
     22 O1         10.8698    6.6844    4.2159 O.3       1 <0>        -0.2804
     23 C14        11.5047    5.7004    3.3948 C.3       1 <0>        -0.0186
     24 C15        10.7741    5.6156    2.0520 C.3       1 <0>        -0.1015
     25 N7          9.3126    5.3347   -2.4020 N.pl3     1 <0>        -0.3640
     26 H2         -2.1424    1.1960    0.0187 H         1 <0>         0.1328
     27 H3         -2.1914    3.6548    0.0416 H         1 <0>         0.1334
     28 H4         -0.0997    4.9394    0.0296 H         1 <0>         0.1415
     29 H5          0.0021   -0.0041    0.0020 H         1 <0>         0.1269
     30 H6          4.7715    4.8800   -0.9061 H         1 <0>         0.1471
     31 H7          4.7880    4.8704    0.8738 H         1 <0>         0.1476
     32 H8          8.7887    7.3058    2.6327 H         1 <0>         0.0798
     33 H9          7.6939    6.0818    3.3213 H         1 <0>         0.1275
     34 H10         9.3900    5.4701    4.9971 H         1 <0>         0.0833
     35 H11         9.0680    7.2197    5.0769 H         1 <0>         0.1146
     36 H12        11.4659    4.7313    3.8921 H         1 <0>         0.0799
     37 H13        12.5442    5.9818    3.2264 H         1 <0>         0.1137
     38 H14        11.2189    4.8272    1.4448 H         1 <0>         0.1185
     39 H15        10.8589    6.5691    1.5307 H         1 <0>         0.0908
     40 H16         8.8288    5.2369   -3.2370 H         1 <0>         0.2446
     41 H17        10.2611    5.5375   -2.4119 H         1 <0>         0.2418
@<TRIPOS>BOND
     1    1    6 ar
     2    1    2 ar
     3    1   26 1
     4    2    3 ar
     5    2   27 1
     6    3    4 ar
     7    3   28 1
     8    4   10 1
     9    4    5 ar
    10    5    6 ar
    11    5    7 1
    12    6   29 1
    13    7    8 1
    14    7    9 1
    15    9   10 2
    16    9   11 1
    17   11   12 1
    18   12   13 1
    19   12   30 1
    20   12   31 1
    21   13   18 ar
    22   13   14 ar
    23   14   15 ar
    24   15   16 ar
    25   15   25 1
    26   16   17 ar
    27   17   18 ar
    28   17   19 1
    29   19   24 1
    30   19   20 1
    31   20   21 1
    32   20   32 1
    33   20   33 1
    34   21   22 1
    35   21   34 1
    36   21   35 1
    37   22   23 1
    38   23   24 1
    39   23   36 1
    40   23   37 1
    41   24   38 1
    42   24   39 1
    43   25   40 1
    44   25   41 1
@<TRIPOS>MOLECULE
ZINC00033458
   42    45     0     0     0
SMALL
USER_CHARGES

@<TRIPOS>ATOM
      1 C1         -1.2158    1.7509    0.0173 C.ar      1 <0>        -0.0740
      2 C2         -1.2433    3.1376    0.0301 C.ar      1 <0>        -0.0837
      3 C3         -0.0710    3.8598    0.0232 C.ar      1 <0>        -0.0935
      4 C4          1.1558    3.1913    0.0082 C.ar      1 <0>        -0.0427
      5 C5          1.1777    1.7869    0.0004 C.ar      1 <0>        -0.0094
      6 C6         -0.0126    1.0758    0.0080 C.ar      1 <0>        -0.0998
      7 N1          2.5141    1.4221   -0.0139 N.pl3     1 <0>        -0.1439
      8 H1          2.8743    0.4893   -0.0222 H         1 <0>         0.3122
      9 C7          3.2483    2.5745   -0.0145 C.cat     1 <0>        -0.0334
     10 S1          5.0084    2.6537   -0.0303 S.3       1 <0>         0.4051
     11 C8          5.2423    4.4485   -0.0227 C.3       1 <0>        -0.2340
     12 C9          6.7161    4.7631   -0.0346 C.ar      1 <0>         0.1362
     13 N2          7.3500    4.9069   -1.1854 N.ar      1 <0>        -0.3373
     14 C10         8.6515    5.1852   -1.2000 C.ar      1 <0>         0.2815
     15 N3          9.3134    5.3185   -0.0556 N.ar      1 <0>        -0.3384
     16 C11         8.6727    5.1732    1.0990 C.ar      1 <0>         0.2340
     17 N4          7.3699    4.8999    1.1055 N.ar      1 <0>        -0.3116
     18 N5          9.3558    5.3107    2.2901 N.pl3     1 <0>        -0.1641
     19 C12         8.7365    6.3408    3.1367 C.3       1 <0>        -0.1023
     20 C13         9.4875    6.4184    4.4686 C.3       1 <0>        -0.0143
     21 O1         10.8698    6.6844    4.2159 O.3       1 <0>        -0.2700
     22 C14        11.5047    5.7004    3.3948 C.3       1 <0>        -0.0181
     23 C15        10.7741    5.6156    2.0520 C.3       1 <0>        -0.1048
     24 N6          9.3126    5.3347   -2.4020 N.pl3     1 <0>        -0.3479
     25 H2         -2.1424    1.1960    0.0187 H         1 <0>         0.1710
     26 H3         -2.1914    3.6548    0.0416 H         1 <0>         0.1705
     27 H4         -0.0997    4.9394    0.0296 H         1 <0>         0.1596
     28 H5          0.0021   -0.0041    0.0020 H         1 <0>         0.1632
     29 H6          4.7715    4.8800   -0.9061 H         1 <0>         0.1373
     30 H7          4.7880    4.8704    0.8738 H         1 <0>         0.1380
     31 H8          8.7887    7.3058    2.6327 H         1 <0>         0.0852
     32 H9          7.6939    6.0818    3.3213 H         1 <0>         0.1175
     33 H10         9.3900    5.4701    4.9971 H         1 <0>         0.0852
     34 H11         9.0680    7.2197    5.0769 H         1 <0>         0.1217
     35 H12        11.4659    4.7313    3.8921 H         1 <0>         0.0836
     36 H13        12.5442    5.9818    3.2264 H         1 <0>         0.1253
     37 H14        11.2189    4.8272    1.4448 H         1 <0>         0.1215
     38 H15        10.8589    6.5691    1.5307 H         1 <0>         0.0966
     39 H16         8.8288    5.2369   -3.2370 H         1 <0>         0.2490
     40 H17        10.2611    5.5375   -2.4119 H         1 <0>         0.2549
     41 N7          2.4480    3.6129   -0.0014 N.pl3     1 <0>        -0.1348
     42 H18         2.7508    4.5940    0.0012 H         1 <0>         0.3087
@<TRIPOS>BOND
     1    1    6 ar
     2    1    2 ar
     3    1   25 1
     4    2    3 ar
     5    2   26 1
     6    3    4 ar
     7    3   27 1
     8    4    5 ar
     9    4   41 1
    10    5    6 ar
    11    5    7 1
    12    6   28 1
    13    7    8 1
    14    7    9 1
    15    9   10 1
    16    9   41 2
    17   10   11 1
    18   11   12 1
    19   11   29 1
    20   11   30 1
    21   12   17 ar
    22   12   13 ar
    23   13   14 ar
    24   14   15 ar
    25   14   24 1
    26   15   16 ar
    27   16   17 ar
    28   16   18 1
    29   18   23 1
    30   18   19 1
    31   19   20 1
    32   19   31 1
    33   19   32 1
    34   20   21 1
    35   20   33 1
    36   20   34 1
    37   21   22 1
    38   22   23 1
    39   22   35 1
    40   22   36 1
    41   23   37 1
    42   23   38 1
    43   24   39 1
    44   24   40 1
    45   41   42 1
@<TRIPOS>MOLECULE
ZINC00034136
   38    40     0     0     0
SMALL
USER_CHARGES

@<TRIPOS>ATOM
      1 C1         -8.0873   -3.2185   -1.9268 C.3       1 <0>        -0.2155
      2 C2         -7.9734   -1.6939   -1.9872 C.3       1 <0>        -0.0039
      3 O1         -6.6137   -1.2972   -1.6675 O.3       1 <0>        -0.2697
      4 C3         -6.3435    0.0230   -1.6766 C.2       1 <0>         0.3492
      5 O2         -7.2200    0.8207   -1.9443 O.2       1 <0>        -0.3608
      6 C4         -4.9835    0.4997   -1.3614 C.ar      1 <0>        -0.1091
      7 C5         -4.7032    1.8699   -1.3709 C.ar      1 <0>        -0.0674
      8 C6         -3.4442    2.3114   -1.0792 C.ar      1 <0>        -0.1186
      9 C7         -2.4348    1.3930   -0.7708 C.ar      1 <0>         0.0195
     10 C8         -2.7141    0.0221   -0.7671 C.ar      1 <0>        -0.1281
     11 C9         -3.9748   -0.4186   -1.0528 C.ar      1 <0>        -0.0801
     12 C10        -1.0759    1.8694   -0.4559 C.2       1 <0>         0.0069
     13 C11         0.0017    1.0732   -0.1375 C.2       1 <0>        -0.2052
     14 C12         1.0876    1.9245    0.0804 C.2       1 <0>        -0.1714
     15 C13         0.6282    3.2156   -0.1084 C.2       1 <0>        -0.0413
     16 O3         -0.6808    3.1556   -0.4275 O.3       1 <0>         0.0039
     17 C14         1.3979    4.3942    0.0119 C.2       1 <0>        -0.0495
     18 C15         0.7956    5.6141   -0.0786 C.2       1 <0>        -0.0700
     19 C16        -0.6445    5.8989   -0.0795 C.2       1 <0>         0.3396
     20 O4         -1.5499    5.0886    0.0000 O.2       1 <0>        -0.2811
     21 N1         -0.7636    7.2377   -0.1865 N.am      1 <0>        -0.3565
     22 C17         0.4539    7.7986   -0.2510 C.2       1 <0>         0.4025
     23 O5          0.6577    8.9934   -0.3517 O.2       1 <0>        -0.3540
     24 N2          1.4184    6.8639   -0.1846 N.am      1 <0>        -0.3222
     25 H1         -7.8349   -3.5622   -0.9236 H         1 <0>         0.0859
     26 H2         -9.1080   -3.5163   -2.1668 H         1 <0>         0.0897
     27 H3         -7.4003   -3.6630   -2.6468 H         1 <0>         0.0857
     28 H4         -8.6604   -1.2494   -1.2672 H         1 <0>         0.0900
     29 H5         -8.2258   -1.3502   -2.9903 H         1 <0>         0.0898
     30 H6         -5.4825    2.5788   -1.6086 H         1 <0>         0.1591
     31 H7         -3.2279    3.3695   -1.0861 H         1 <0>         0.1636
     32 H8         -1.9340   -0.6873   -0.5334 H         1 <0>         0.1385
     33 H9         -4.1915   -1.4766   -1.0455 H         1 <0>         0.1512
     34 H10         0.0073   -0.0049   -0.0730 H         1 <0>         0.1603
     35 H11         2.0926    1.6311    0.3456 H         1 <0>         0.1588
     36 H12         2.4634    4.3289    0.1756 H         1 <0>         0.1616
     37 H13        -1.6032    7.7226   -0.2135 H         1 <0>         0.2757
     38 H14         2.3745    7.0262   -0.2078 H         1 <0>         0.2728
@<TRIPOS>BOND
     1    1    2 1
     2    1   25 1
     3    1   26 1
     4    1   27 1
     5    2    3 1
     6    2   28 1
     7    2   29 1
     8    3    4 1
     9    4    5 2
    10    4    6 1
    11    6   11 ar
    12    6    7 ar
    13    7    8 ar
    14    7   30 1
    15    8    9 ar
    16    8   31 1
    17    9   10 ar
    18    9   12 1
    19   10   11 ar
    20   10   32 1
    21   11   33 1
    22   12   16 1
    23   12   13 2
    24   13   14 1
    25   13   34 1
    26   14   15 2
    27   14   35 1
    28   15   16 1
    29   15   17 1
    30   17   18 2
    31   17   36 1
    32   18   24 1
    33   18   19 1
    34   19   20 2
    35   19   21 am
    36   21   22 am
    37   21   37 1
    38   22   23 2
    39   22   24 am
    40   24   38 1
@<TRIPOS>MOLECULE
ZINC00035578
   42    43     0     0     0
SMALL
USER_CHARGES

@<TRIPOS>ATOM
      1 C1          0.5048   -2.4871    0.8606 C.3       1 <0>        -0.2406
      2 C2         -0.1111   -1.1457    0.5571 C.2       1 <0>         0.3250
      3 O1         -1.3168   -1.0331    0.4904 O.2       1 <0>        -0.3311
      4 N1          0.6780   -0.0710    0.3598 N.am      1 <0>        -0.8302
      5 S1          0.0012    1.4031    0.0262 S.o2      1 <0>         2.7490
      6 O2          1.0760    2.3240   -0.1009 O.2       1 <0>        -0.9110
      7 O3         -0.9459    1.1897   -1.0113 O.2       1 <0>        -0.8832
      8 C3         -0.9138    1.8906    1.4509 C.ar      1 <0>        -0.7818
      9 C4         -2.2465    1.5406    1.5681 C.ar      1 <0>         0.0139
     10 C5         -2.9652    1.9171    2.6858 C.ar      1 <0>        -0.1920
     11 C6         -2.3508    2.6565    3.6879 C.ar      1 <0>         0.1226
     12 C7         -1.0137    3.0109    3.5648 C.ar      1 <0>        -0.1591
     13 C8         -0.2992    2.6273    2.4469 C.ar      1 <0>        -0.0131
     14 N2         -3.0773    3.0433    4.8195 N.am      1 <0>        -0.3329
     15 C9         -2.8059    4.2157    5.4263 C.2       1 <0>         0.2996
     16 O4         -1.9997    4.9790    4.9379 O.2       1 <0>        -0.3442
     17 C10        -3.5042    4.5783    6.7116 C.3       1 <0>        -0.1832
     18 C11        -3.0192    5.9496    7.1862 C.3       1 <0>        -0.1071
     19 C12        -3.7175    6.3122    8.4715 C.ar      1 <0>        -0.0837
     20 C13        -4.9108    7.0092    8.4369 C.ar      1 <0>        -0.1235
     21 C14        -5.5537    7.3376    9.6158 C.ar      1 <0>        -0.1253
     22 C15        -4.9984    6.9778   10.8294 C.ar      1 <0>        -0.1282
     23 C16        -3.8022    6.2857   10.8641 C.ar      1 <0>        -0.1257
     24 C17        -3.1619    5.9528    9.6851 C.ar      1 <0>        -0.1245
     25 H1          0.6174   -2.5996    1.9389 H         1 <0>         0.1093
     26 H2         -0.1404   -3.2781    0.4782 H         1 <0>         0.1213
     27 H3          1.4829   -2.5540    0.3843 H         1 <0>         0.0907
     28 H4          1.6423   -0.1610    0.4131 H         1 <0>         0.2527
     29 H5         -2.7248    0.9691    0.7864 H         1 <0>         0.1711
     30 H6         -4.0048    1.6399    2.7786 H         1 <0>         0.1380
     31 H7         -0.5330    3.5857    4.3426 H         1 <0>         0.1643
     32 H8          0.7406    2.9026    2.3505 H         1 <0>         0.1499
     33 H9         -3.7762    2.4676    5.1672 H         1 <0>         0.2363
     34 H10        -4.5806    4.6119    6.5433 H         1 <0>         0.1068
     35 H11        -3.2783    3.8301    7.4714 H         1 <0>         0.1066
     36 H12        -1.9428    5.9161    7.3544 H         1 <0>         0.1050
     37 H13        -3.2451    6.6978    6.4264 H         1 <0>         0.1077
     38 H14        -5.3426    7.2940    7.4889 H         1 <0>         0.1310
     39 H15        -6.4881    7.8786    9.5887 H         1 <0>         0.1303
     40 H16        -5.4988    7.2376   11.7505 H         1 <0>         0.1297
     41 H17        -3.3681    6.0049   11.8123 H         1 <0>         0.1298
     42 H18        -2.2274    5.4121    9.7122 H         1 <0>         0.1297
@<TRIPOS>BOND
     1    1    2 1
     2    1   25 1
     3    1   26 1
     4    1   27 1
     5    2    3 2
     6    2    4 am
     7    4    5 1
     8    4   28 1
     9    5    6 2
    10    5    7 2
    11    5    8 1
    12    8   13 ar
    13    8    9 ar
    14    9   10 ar
    15    9   29 1
    16   10   11 ar
    17   10   30 1
    18   11   12 ar
    19   11   14 1
    20   12   13 ar
    21   12   31 1
    22   13   32 1
    23   14   15 am
    24   14   33 1
    25   15   16 2
    26   15   17 1
    27   17   18 1
    28   17   34 1
    29   17   35 1
    30   18   19 1
    31   18   36 1
    32   18   37 1
    33   19   24 ar
    34   19   20 ar
    35   20   21 ar
    36   20   38 1
    37   21   22 ar
    38   21   39 1
    39   22   23 ar
    40   22   40 1
    41   23   24 ar
    42   23   41 1
    43   24   42 1
@<TRIPOS>MOLECULE
ZINC00035660
   39    40     0     0     0
SMALL
USER_CHARGES

@<TRIPOS>ATOM
      1 C1         -5.0111    7.9484    8.0707 C.3       1 <0>        -0.1752
      2 C2         -4.7815    6.4885    7.7757 C.ar      1 <0>        -0.0831
      3 C3         -5.1944    5.5278    8.6821 C.ar      1 <0>        -0.1011
      4 C4         -4.9866    4.1855    8.4195 C.ar      1 <0>        -0.1319
      5 C5         -4.3660    3.7961    7.2503 C.ar      1 <0>        -0.1100
      6 C6         -3.9475    4.7599    6.3317 C.ar      1 <0>        -0.1299
      7 C7         -4.1555    6.1131    6.6053 C.ar      1 <0>        -0.0632
      8 C8         -3.2816    4.3501    5.0773 C.2       1 <0>         0.3498
      9 O1         -2.9182    5.1918    4.2790 O.2       1 <0>        -0.3451
     10 N1         -3.0772    3.0433    4.8187 N.am      1 <0>        -0.3285
     11 C9         -2.3502    2.6597    3.6872 C.ar      1 <0>         0.1238
     12 C10        -2.6720    1.4859    3.0182 C.ar      1 <0>        -0.1937
     13 C11        -1.9517    1.1097    1.9014 C.ar      1 <0>        -0.0127
     14 C12        -0.9116    1.9007    1.4490 C.ar      1 <0>        -0.7818
     15 C13        -0.5850    3.0671    2.1161 C.ar      1 <0>         0.0124
     16 C14        -1.3046    3.4516    3.2304 C.ar      1 <0>        -0.1563
     17 S1          0.0044    1.4174    0.0234 S.o2      1 <0>         2.7498
     18 O2         -0.1415    0.0089   -0.0948 O.2       1 <0>        -0.9161
     19 O3          1.2749    2.0458    0.1248 O.2       1 <0>        -0.8830
     20 N2         -0.7495    2.0835   -1.2920 N.am      1 <0>        -0.8306
     21 C15        -0.7927    3.4227   -1.4375 C.2       1 <0>         0.3238
     22 O4         -0.2794    4.1399   -0.6051 O.2       1 <0>        -0.3254
     23 C16        -1.4787    4.0288   -2.6346 C.3       1 <0>        -0.2398
     24 H1         -4.1530    8.3495    8.6099 H         1 <0>         0.0906
     25 H2         -5.1388    8.4924    7.1348 H         1 <0>         0.0880
     26 H3         -5.9077    8.0592    8.6806 H         1 <0>         0.0834
     27 H4         -5.6806    5.8272    9.5988 H         1 <0>         0.1351
     28 H5         -5.3106    3.4408    9.1314 H         1 <0>         0.1348
     29 H6         -4.2041    2.7479    7.0467 H         1 <0>         0.1229
     30 H7         -3.8301    6.8640    5.9006 H         1 <0>         0.1588
     31 H8         -3.4344    2.3688    5.4173 H         1 <0>         0.2376
     32 H9         -3.4847    0.8681    3.3707 H         1 <0>         0.1344
     33 H10        -2.2014    0.1971    1.3808 H         1 <0>         0.1468
     34 H11         0.2310    3.6801    1.7629 H         1 <0>         0.1736
     35 H12        -1.0522    4.3652    3.7482 H         1 <0>         0.1687
     36 H13        -1.1600    1.5098   -1.9577 H         1 <0>         0.2520
     37 H14        -2.5292    4.2030   -2.4017 H         1 <0>         0.1108
     38 H15        -1.0006    4.9753   -2.8867 H         1 <0>         0.1217
     39 H16        -1.4026    3.3464   -3.4811 H         1 <0>         0.0888
@<TRIPOS>BOND
     1    1    2 1
     2    1   24 1
     3    1   25 1
     4    1   26 1
     5    2    7 ar
     6    2    3 ar
     7    3    4 ar
     8    3   27 1
     9    4    5 ar
    10    4   28 1
    11    5    6 ar
    12    5   29 1
    13    6    7 ar
    14    6    8 1
    15    7   30 1
    16    8    9 2
    17    8   10 am
    18   10   11 1
    19   10   31 1
    20   11   16 ar
    21   11   12 ar
    22   12   13 ar
    23   12   32 1
    24   13   14 ar
    25   13   33 1
    26   14   15 ar
    27   14   17 1
    28   15   16 ar
    29   15   34 1
    30   16   35 1
    31   17   18 2
    32   17   19 2
    33   17   20 1
    34   20   21 am
    35   20   36 1
    36   21   22 2
    37   21   23 1
    38   23   37 1
    39   23   38 1
    40   23   39 1
@<TRIPOS>MOLECULE
ZINC00035663
   43    44     0     0     0
SMALL
USER_CHARGES

@<TRIPOS>ATOM
      1 C1         -4.6518   -4.0233    1.7329 C.3       1 <0>        -0.1982
      2 C2         -4.7391   -3.1459    0.4826 C.3       1 <0>        -0.0368
      3 C3         -5.9491   -2.2163    0.5953 C.3       1 <0>        -0.2047
      4 C4         -4.8917   -4.0339   -0.7540 C.3       1 <0>        -0.1982
      5 C5         -3.4831   -2.3226    0.3579 C.ar      1 <0>        -0.0316
      6 C6         -2.2561   -2.9515    0.2422 C.ar      1 <0>        -0.1359
      7 C7         -1.1023   -2.2038    0.1282 C.ar      1 <0>        -0.0592
      8 C8         -1.1749   -0.8097    0.1293 C.ar      1 <0>        -0.1407
      9 C9         -2.4155   -0.1816    0.2512 C.ar      1 <0>        -0.1014
     10 C10        -3.5620   -0.9412    0.3592 C.ar      1 <0>        -0.1391
     11 C11         0.0572   -0.0022    0.0080 C.2       1 <0>         0.3523
     12 O1          1.1368   -0.5519   -0.0929 O.2       1 <0>        -0.3484
     13 N1         -0.0162    1.3436    0.0094 N.am      1 <0>        -0.3292
     14 C12         1.1549    2.1077   -0.0075 C.ar      1 <0>         0.1213
     15 C13         1.2086    3.3143    0.6785 C.ar      1 <0>        -0.1893
     16 C14         2.3687    4.0635    0.6649 C.ar      1 <0>        -0.0093
     17 C15         3.4721    3.6195   -0.0405 C.ar      1 <0>        -0.7824
     18 C16         3.4199    2.4216   -0.7295 C.ar      1 <0>        -0.0103
     19 C17         2.2650    1.6646   -0.7149 C.ar      1 <0>        -0.1541
     20 S1          4.9480    4.5817   -0.0607 S.o2      1 <0>         2.7634
     21 O2          4.9212    5.3911    1.1069 O.2       1 <0>        -0.9198
     22 O3          6.0138    3.6848   -0.3416 O.2       1 <0>        -0.9166
     23 N2          4.8432    5.6118   -1.3532 N.pl3     1 <0>        -0.9320
     24 H1         -4.5431   -3.3907    2.6139 H         1 <0>         0.0804
     25 H2         -5.5603   -4.6188    1.8230 H         1 <0>         0.0789
     26 H3         -3.7898   -4.6856    1.6525 H         1 <0>         0.0774
     27 H4         -6.0113   -1.5912   -0.2954 H         1 <0>         0.0773
     28 H5         -6.8576   -2.8118    0.6855 H         1 <0>         0.0799
     29 H6         -5.8404   -1.5837    1.4763 H         1 <0>         0.0778
     30 H7         -4.0297   -4.6961   -0.8344 H         1 <0>         0.0773
     31 H8         -5.8002   -4.6293   -0.6639 H         1 <0>         0.0790
     32 H9         -4.9539   -3.4087   -1.6448 H         1 <0>         0.0797
     33 H10        -2.2014   -4.0301    0.2415 H         1 <0>         0.1407
     34 H11        -0.1452   -2.6958    0.0380 H         1 <0>         0.1578
     35 H12        -2.4781    0.8965    0.2569 H         1 <0>         0.1218
     36 H13        -4.5230   -0.4566    0.4495 H         1 <0>         0.1422
     37 H14        -0.8814    1.7821    0.0181 H         1 <0>         0.2376
     38 H15         0.3456    3.6638    1.2258 H         1 <0>         0.1366
     39 H16         2.4128    4.9993    1.2023 H         1 <0>         0.1538
     40 H17         4.2835    2.0776   -1.2794 H         1 <0>         0.1571
     41 H18         2.2251    0.7288   -1.2527 H         1 <0>         0.1735
     42 H19         4.0595    5.5949   -1.9245 H         1 <0>         0.2288
     43 H20         5.5656    6.2319   -1.5389 H         1 <0>         0.2427
@<TRIPOS>BOND
     1    1    2 1
     2    1   24 1
     3    1   25 1
     4    1   26 1
     5    2    3 1
     6    2    4 1
     7    2    5 1
     8    3   27 1
     9    3   28 1
    10    3   29 1
    11    4   30 1
    12    4   31 1
    13    4   32 1
    14    5   10 ar
    15    5    6 ar
    16    6    7 ar
    17    6   33 1
    18    7    8 ar
    19    7   34 1
    20    8    9 ar
    21    8   11 1
    22    9   10 ar
    23    9   35 1
    24   10   36 1
    25   11   12 2
    26   11   13 am
    27   13   14 1
    28   13   37 1
    29   14   19 ar
    30   14   15 ar
    31   15   16 ar
    32   15   38 1
    33   16   17 ar
    34   16   39 1
    35   17   18 ar
    36   17   20 1
    37   18   19 ar
    38   18   40 1
    39   19   41 1
    40   20   21 2
    41   20   22 2
    42   20   23 1
    43   23   42 1
    44   23   43 1
@<TRIPOS>MOLECULE
ZINC00036871
   42    45     0     0     0
SMALL
USER_CHARGES

@<TRIPOS>ATOM
      1 C1         -3.2697    2.8279  -11.8621 C.ar      1 <0>        -0.1900
      2 C2         -2.4551    2.9111  -10.7473 C.ar      1 <0>        -0.0847
      3 C3         -2.6178    1.9575   -9.7387 C.ar      1 <0>        -0.1283
      4 C4         -3.6002    0.9629   -9.8936 C.ar      1 <0>         0.0428
      5 N1         -3.5260    0.1748   -8.7604 N.2       1 <0>        -0.1320
      6 H1         -1.2794    2.3062   -8.1584 H         1 <0>         0.2491
      7 C5         -2.5425    0.6942   -7.9653 C.2       1 <0>        -0.1335
      8 N2         -2.0139    1.7460   -8.5415 N.pl3     1 <0>        -0.1763
      9 S1         -2.0581    0.0463   -6.4000 S.3       1 <0>         0.3424
     10 C6         -0.7490    1.2187   -5.9661 C.3       1 <0>        -0.2440
     11 C7         -0.1702    0.8512   -4.6241 C.ar      1 <0>         0.1593
     12 N3          0.8548    0.0199   -4.5537 N.ar      1 <0>        -0.3335
     13 C8          1.3687   -0.3070   -3.3702 C.ar      1 <0>         0.2732
     14 N4          0.8499    0.2037   -2.2587 N.ar      1 <0>        -0.3608
     15 C9         -0.1803    1.0390   -2.3335 C.ar      1 <0>         0.2245
     16 N5         -0.6923    1.3569   -3.5205 N.ar      1 <0>        -0.3074
     17 N6         -0.7225    1.5721   -1.1820 N.pl3     1 <0>        -0.1633
     18 C10        -0.0127    1.0858    0.0080 C.3       1 <0>        -0.0628
     19 C11        -0.7286    1.5791    1.2674 C.3       1 <0>        -0.1639
     20 C12        -0.7644    3.1099    1.2618 C.3       1 <0>        -0.1654
     21 C13        -1.4660    3.5913   -0.0113 C.3       1 <0>        -0.1611
     22 C14        -0.7289    3.0396   -1.2338 C.3       1 <0>        -0.0608
     23 N7          2.4392   -1.1748   -3.2978 N.pl3     1 <0>        -0.3624
     24 N8         -4.3483    0.9259  -10.9832 N.ar      1 <0>        -0.1197
     25 C15        -4.2108    1.8156  -11.9459 C.ar      1 <0>        -0.0360
     26 H2         -3.1726    3.5477  -12.6614 H         1 <0>         0.1410
     27 H3         -1.7134    3.6911  -10.6589 H         1 <0>         0.1310
     28 H4         -1.1638    2.2256   -5.9195 H         1 <0>         0.1264
     29 H5          0.0354    1.1835   -6.7220 H         1 <0>         0.1254
     30 H6          0.0021   -0.0041    0.0020 H         1 <0>         0.1156
     31 H7          1.0099    1.4629    0.0003 H         1 <0>         0.0760
     32 H8         -1.7471    1.1912    1.2827 H         1 <0>         0.0982
     33 H9         -0.1928    1.2311    2.1505 H         1 <0>         0.0883
     34 H10         0.2538    3.4983    1.2857 H         1 <0>         0.0799
     35 H11        -1.3112    3.4647    2.1354 H         1 <0>         0.0862
     36 H12        -1.4570    4.6808   -0.0419 H         1 <0>         0.0880
     37 H13        -2.4961    3.2350   -0.0160 H         1 <0>         0.1015
     38 H14         0.2971    3.4074   -1.2358 H         1 <0>         0.0655
     39 H15        -1.2345    3.3688   -2.1416 H         1 <0>         0.1193
     40 H16         2.8134   -1.4124   -2.4350 H         1 <0>         0.2433
     41 H17         2.8174   -1.5473   -4.1097 H         1 <0>         0.2447
     42 H18        -4.8453    1.7542  -12.8178 H         1 <0>         0.1647
@<TRIPOS>BOND
     1    1   25 ar
     2    1    2 ar
     3    1   26 1
     4    2    3 ar
     5    2   27 1
     6    3    8 1
     7    3    4 ar
     8    4    5 1
     9    4   24 ar
    10    5    7 2
    11    6    8 1
    12    7    9 1
    13    7    8 1
    14    9   10 1
    15   10   11 1
    16   10   28 1
    17   10   29 1
    18   11   16 ar
    19   11   12 ar
    20   12   13 ar
    21   13   14 ar
    22   13   23 1
    23   14   15 ar
    24   15   16 ar
    25   15   17 1
    26   17   22 1
    27   17   18 1
    28   18   19 1
    29   18   30 1
    30   18   31 1
    31   19   20 1
    32   19   32 1
    33   19   33 1
    34   20   21 1
    35   20   34 1
    36   20   35 1
    37   21   22 1
    38   21   36 1
    39   21   37 1
    40   22   38 1
    41   22   39 1
    42   23   40 1
    43   23   41 1
    44   24   25 ar
    45   25   42 1
@<TRIPOS>MOLECULE
ZINC00037147
   38    40     0     0     0
SMALL
USER_CHARGES

@<TRIPOS>ATOM
      1 C1         -7.3783   10.3607    0.1247 C.3       1 <0>        -0.0522
      2 N1         -5.9287   10.5719    0.1122 N.pl3     1 <0>        -0.0578
      3 C2         -5.3242   11.7795    0.1129 C.2       1 <0>        -0.0777
      4 C3         -3.9887   11.5594    0.0997 C.2       1 <0>        -0.1851
      5 C4         -3.8372   10.1524    0.0911 C.2       1 <0>        -0.1009
      6 N2         -5.0498    9.6351    0.0944 N.2       1 <0>        -0.0779
      7 C5         -2.5634    9.4057    0.0749 C.2       1 <0>         0.3836
      8 O1         -1.5062   10.0069    0.0677 O.2       1 <0>        -0.2570
      9 N3         -2.5723    8.0580    0.0682 N.am      1 <0>        -0.3236
     10 N4         -1.3637    7.3496    0.0528 N.2       1 <0>         0.0263
     11 C6         -1.3722    6.0497    0.0463 C.2       1 <0>        -0.1086
     12 C7         -0.1045    5.3066    0.0302 C.ar      1 <0>        -0.0808
     13 C8         -0.0956    3.8449    0.0227 C.ar      1 <0>        -0.0021
     14 C9         -1.2856    3.1072    0.0305 C.ar      1 <0>        -0.1276
     15 C10        -1.2340    1.7451    0.0174 C.ar      1 <0>        -0.1138
     16 C11        -0.0126    1.0758    0.0080 C.ar      1 <0>        -0.1333
     17 C12         1.1633    1.7623    0.0004 C.ar      1 <0>        -0.1042
     18 C13         1.1480    3.1676    0.0077 C.ar      1 <0>        -0.0510
     19 C14         2.3418    3.9104    0.0007 C.ar      1 <0>        -0.0889
     20 C15         2.3155    5.2694    0.0075 C.ar      1 <0>        -0.1579
     21 C16         1.1166    5.9806    0.0223 C.ar      1 <0>         0.1244
     22 O2          1.1377    7.3382    0.0295 O.3       1 <0>        -0.2646
     23 N5         -2.9131   12.5763    0.0956 N.pl3     1 <0>         0.5756
     24 O3         -3.1952   13.7612    0.1042 O.2       1 <0>        -0.3790
     25 O4         -1.7460   12.2283    0.0836 O.3       1 <0>        -0.2814
     26 H1         -7.7475   10.3137   -0.8998 H         1 <0>         0.1060
     27 H2         -7.6047    9.4249    0.6357 H         1 <0>         0.1199
     28 H3         -7.8613   11.1862    0.6475 H         1 <0>         0.1069
     29 H4         -5.8149   12.7415    0.1224 H         1 <0>         0.2044
     30 H5         -3.4155    7.5785    0.0739 H         1 <0>         0.2151
     31 H6         -2.3110    5.5158    0.0527 H         1 <0>         0.1169
     32 H7         -2.2390    3.6145    0.0420 H         1 <0>         0.1296
     33 H8         -2.1526    1.1771    0.0187 H         1 <0>         0.1291
     34 H9          0.0021   -0.0041    0.0020 H         1 <0>         0.1302
     35 H10         2.1028    1.2298   -0.0114 H         1 <0>         0.1343
     36 H11         3.2909    3.3951   -0.0108 H         1 <0>         0.1354
     37 H12         3.2488    5.8129    0.0019 H         1 <0>         0.1438
     38 H13         1.1522    7.7266    0.9149 H         1 <0>         0.2437
@<TRIPOS>BOND
     1    1    2 1
     2    1   26 1
     3    1   27 1
     4    1   28 1
     5    2    6 1
     6    2    3 1
     7    3    4 2
     8    3   29 1
     9    4    5 1
    10    4   23 1
    11    5    6 2
    12    5    7 1
    13    7    8 2
    14    7    9 am
    15    9   10 1
    16    9   30 1
    17   10   11 2
    18   11   12 1
    19   11   31 1
    20   12   21 ar
    21   12   13 ar
    22   13   18 ar
    23   13   14 ar
    24   14   15 ar
    25   14   32 1
    26   15   16 ar
    27   15   33 1
    28   16   17 ar
    29   16   34 1
    30   17   18 ar
    31   17   35 1
    32   18   19 ar
    33   19   20 ar
    34   19   36 1
    35   20   21 ar
    36   20   37 1
    37   21   22 1
    38   22   38 1
    39   23   24 2
    40   23   25 1
@<TRIPOS>MOLECULE
ZINC00037928
   41    42     0     0     0
SMALL
USER_CHARGES

@<TRIPOS>ATOM
      1 C1          1.3915    0.0749   -6.1630 C.3       1 <0>        -0.1700
      2 C2          0.8306    0.4715   -4.8217 C.ar      1 <0>        -0.1044
      3 C3          1.4495    0.0445   -3.6611 C.ar      1 <0>        -0.0956
      4 C4          0.9372    0.4062   -2.4305 C.ar      1 <0>        -0.2165
      5 C5         -0.1992    1.1991   -2.3594 C.ar      1 <0>         0.0831
      6 C6         -0.8212    1.6218   -3.5249 C.ar      1 <0>        -0.0871
      7 C7         -0.3020    1.2612   -4.7535 C.ar      1 <0>        -0.0936
      8 C8         -2.0592    2.4780   -3.4513 C.3       1 <0>        -0.1691
      9 O1         -0.7053    1.5564   -1.1497 O.3       1 <0>        -0.1790
     10 C9         -0.0164    1.0801    0.0081 C.3       1 <0>        -0.0338
     11 C10        -0.7170    1.5732    1.2478 C.2       1 <0>         0.3002
     12 O2         -1.7086    2.2645    1.1496 O.2       1 <0>        -0.3103
     13 N1         -0.2416    1.2460    2.4658 N.am      1 <0>        -0.3338
     14 C11        -0.8333    1.7819    3.6149 C.ar      1 <0>         0.1196
     15 C12        -0.0525    2.0858    4.7224 C.ar      1 <0>        -0.1874
     16 C13        -0.6387    2.6210    5.8528 C.ar      1 <0>        -0.0088
     17 C14        -2.0033    2.8422    5.8871 C.ar      1 <0>        -0.7801
     18 C15        -2.7843    2.5349    4.7881 C.ar      1 <0>        -0.0089
     19 C16        -2.2033    2.0057    3.6524 C.ar      1 <0>        -0.1532
     20 S1         -2.7483    3.5177    7.3339 S.o2      1 <0>         2.7632
     21 O3         -1.7275    4.2262    8.0233 O.2       1 <0>        -0.9186
     22 O4         -3.9572    4.1372    6.9167 O.2       1 <0>        -0.9151
     23 N2         -3.1783    2.2454    8.3027 N.pl3     1 <0>        -0.9319
     24 H1          0.9389   -0.8636   -6.4830 H         1 <0>         0.0847
     25 H2          1.1702    0.8528   -6.8937 H         1 <0>         0.0815
     26 H3          2.4712   -0.0514   -6.0824 H         1 <0>         0.0799
     27 H4          2.3341   -0.5727   -3.7170 H         1 <0>         0.1305
     28 H5          1.4205    0.0719   -1.5244 H         1 <0>         0.1259
     29 H6         -0.7837    1.5931   -5.6613 H         1 <0>         0.1381
     30 H7         -1.7734    3.5297   -3.4388 H         1 <0>         0.0891
     31 H8         -2.6882    2.2827   -4.3199 H         1 <0>         0.0767
     32 H9         -2.6115    2.2407   -2.5420 H         1 <0>         0.1010
     33 H10        -0.0094   -0.0099    0.0039 H         1 <0>         0.0944
     34 H11         1.0089    1.4500   -0.0013 H         1 <0>         0.0978
     35 H12         0.5108    0.6389    2.5457 H         1 <0>         0.2346
     36 H13         1.0125    1.9084    4.6982 H         1 <0>         0.1369
     37 H14        -0.0313    2.8627    6.7124 H         1 <0>         0.1551
     38 H15        -3.8498    2.7092    4.8179 H         1 <0>         0.1588
     39 H16        -2.8138    1.7665    2.7941 H         1 <0>         0.1739
     40 H17        -2.9999    1.3359    8.0165 H         1 <0>         0.2288
     41 H18        -3.6085    2.4096    9.1564 H         1 <0>         0.2434
@<TRIPOS>BOND
     1    1    2 1
     2    1   24 1
     3    1   25 1
     4    1   26 1
     5    2    7 ar
     6    2    3 ar
     7    3    4 ar
     8    3   27 1
     9    4    5 ar
    10    4   28 1
    11    5    6 ar
    12    5    9 1
    13    6    7 ar
    14    6    8 1
    15    7   29 1
    16    8   30 1
    17    8   31 1
    18    8   32 1
    19    9   10 1
    20   10   11 1
    21   10   33 1
    22   10   34 1
    23   11   12 2
    24   11   13 am
    25   13   14 1
    26   13   35 1
    27   14   19 ar
    28   14   15 ar
    29   15   16 ar
    30   15   36 1
    31   16   17 ar
    32   16   37 1
    33   17   18 ar
    34   17   20 1
    35   18   19 ar
    36   18   38 1
    37   19   39 1
    38   20   21 2
    39   20   22 2
    40   20   23 1
    41   23   40 1
    42   23   41 1
@<TRIPOS>MOLECULE
ZINC00041963
   38    39     0     0     0
SMALL
USER_CHARGES

@<TRIPOS>ATOM
      1 C1         -1.7998    7.6967    4.4224 C.3       1 <0>        -0.1765
      2 C2         -2.7617    6.8108    3.6735 C.ar      1 <0>        -0.0679
      3 C3         -3.6461    7.3646    2.7660 C.ar      1 <0>        -0.1243
      4 C4         -4.5286    6.5556    2.0777 C.ar      1 <0>        -0.1058
      5 C5         -4.5274    5.1840    2.2978 C.ar      1 <0>         0.0262
      6 C6         -3.6413    4.6316    3.2140 C.ar      1 <0>        -0.1250
      7 C7         -2.7578    5.4458    3.8950 C.ar      1 <0>        -0.1282
      8 N1         -5.4190    4.3629    1.6038 N.pl3     1 <0>        -0.8253
      9 S1         -5.1575    4.0224    0.0044 S.o2      1 <0>         2.7621
     10 O1         -4.9086    5.2643   -0.6398 O.2       1 <0>        -0.9077
     11 O2         -6.2030    3.1498   -0.4013 O.2       1 <0>        -0.9182
     12 C8         -3.6619    3.0959   -0.0932 C.ar      1 <0>        -0.7769
     13 C9         -3.7062    1.7139   -0.1075 C.ar      1 <0>        -0.0085
     14 C10        -2.5357    0.9848   -0.1839 C.ar      1 <0>        -0.1875
     15 C11        -1.3134    1.6410   -0.2460 C.ar      1 <0>         0.1332
     16 C12        -1.2720    3.0289   -0.2252 C.ar      1 <0>        -0.1538
     17 C13        -2.4464    3.7523   -0.1549 C.ar      1 <0>        -0.0036
     18 N2         -0.1255    0.9051   -0.3236 N.am      1 <0>        -0.3139
     19 C14         0.9226    1.3886   -1.0194 C.2       1 <0>         0.4030
     20 O3          0.8066    2.4170   -1.6561 O.2       1 <0>        -0.3994
     21 O4          2.0981    0.7321   -1.0090 O.3       1 <0>        -0.2762
     22 C15         3.1832    1.3109   -1.7809 C.3       1 <0>        -0.0335
     23 H1         -2.2613    8.0302    5.3519 H         1 <0>         0.0884
     24 H2         -0.8914    7.1379    4.6478 H         1 <0>         0.0825
     25 H3         -1.5508    8.5628    3.8092 H         1 <0>         0.0848
     26 H4         -3.6468    8.4311    2.5957 H         1 <0>         0.1377
     27 H5         -5.2188    6.9887    1.3689 H         1 <0>         0.1544
     28 H6         -3.6408    3.5662    3.3907 H         1 <0>         0.1351
     29 H7         -2.0659    5.0165    4.6044 H         1 <0>         0.1335
     30 H8         -6.1914    3.9922    2.0586 H         1 <0>         0.2518
     31 H9         -4.6570    1.2041   -0.0592 H         1 <0>         0.1536
     32 H10        -2.5709   -0.0946   -0.1957 H         1 <0>         0.1376
     33 H11        -0.3227    3.5420   -0.2685 H         1 <0>         0.1676
     34 H12        -2.4151    4.8318   -0.1436 H         1 <0>         0.1563
     35 H13        -0.0579    0.0451    0.1201 H         1 <0>         0.2445
     36 H14         4.0704    0.6847   -1.6868 H         1 <0>         0.1069
     37 H15         2.8911    1.3719   -2.8292 H         1 <0>         0.0878
     38 H16         3.4027    2.3106   -1.4062 H         1 <0>         0.0852
@<TRIPOS>BOND
     1    1    2 1
     2    1   23 1
     3    1   24 1
     4    1   25 1
     5    2    7 ar
     6    2    3 ar
     7    3    4 ar
     8    3   26 1
     9    4    5 ar
    10    4   27 1
    11    5    6 ar
    12    5    8 1
    13    6    7 ar
    14    6   28 1
    15    7   29 1
    16    8    9 1
    17    8   30 1
    18    9   10 2
    19    9   11 2
    20    9   12 1
    21   12   17 ar
    22   12   13 ar
    23   13   14 ar
    24   13   31 1
    25   14   15 ar
    26   14   32 1
    27   15   16 ar
    28   15   18 1
    29   16   17 ar
    30   16   33 1
    31   17   34 1
    32   18   19 am
    33   18   35 1
    34   19   20 2
    35   19   21 1
    36   21   22 1
    37   22   36 1
    38   22   37 1
    39   22   38 1
@<TRIPOS>MOLECULE
ZINC00041963
   37    38     0     0     0
SMALL
USER_CHARGES

@<TRIPOS>ATOM
      1 C1         -1.7998    7.6967    4.4224 C.3       1 <0>        -0.1580
      2 C2         -2.7617    6.8108    3.6735 C.ar      1 <0>        -0.1440
      3 C3         -3.6461    7.3646    2.7660 C.ar      1 <0>        -0.1288
      4 C4         -4.5286    6.5556    2.0777 C.ar      1 <0>        -0.1545
      5 C5         -4.5274    5.1840    2.2978 C.ar      1 <0>         0.0883
      6 C6         -3.6413    4.6316    3.2140 C.ar      1 <0>        -0.1618
      7 C7         -2.7578    5.4458    3.8950 C.ar      1 <0>        -0.1330
      8 S1         -5.1575    4.0224    0.0044 S.o2      1 <0>         2.5969
      9 O1         -4.9086    5.2643   -0.6398 O.2       1 <0>        -0.9951
     10 O2         -6.2030    3.1498   -0.4013 O.2       1 <0>        -0.9639
     11 C8         -3.6619    3.0959   -0.0932 C.ar      1 <0>        -0.7101
     12 C9         -3.7062    1.7139   -0.1075 C.ar      1 <0>        -0.0207
     13 C10        -2.5357    0.9848   -0.1839 C.ar      1 <0>        -0.1948
     14 C11        -1.3134    1.6410   -0.2460 C.ar      1 <0>         0.0786
     15 C12        -1.2720    3.0289   -0.2252 C.ar      1 <0>        -0.1568
     16 C13        -2.4464    3.7523   -0.1549 C.ar      1 <0>        -0.0192
     17 N1         -0.1255    0.9051   -0.3236 N.am      1 <0>        -0.3066
     18 C14         0.9226    1.3886   -1.0194 C.2       1 <0>         0.3954
     19 O3          0.8066    2.4170   -1.6561 O.2       1 <0>        -0.4034
     20 O4          2.0981    0.7321   -1.0090 O.3       1 <0>        -0.2889
     21 C15         3.1832    1.3109   -1.7809 C.3       1 <0>        -0.0311
     22 H1         -2.2613    8.0302    5.3519 H         1 <0>         0.0617
     23 H2         -0.8914    7.1379    4.6478 H         1 <0>         0.0611
     24 H3         -1.5508    8.5628    3.8092 H         1 <0>         0.0628
     25 H4         -3.6468    8.4311    2.5957 H         1 <0>         0.1023
     26 H5         -5.2188    6.9887    1.3689 H         1 <0>         0.1410
     27 H6         -3.6408    3.5662    3.3907 H         1 <0>         0.1244
     28 H7         -2.0659    5.0165    4.6044 H         1 <0>         0.0992
     29 H8         -4.6570    1.2041   -0.0592 H         1 <0>         0.1527
     30 H9         -2.5709   -0.0946   -0.1957 H         1 <0>         0.1136
     31 H10        -0.3227    3.5420   -0.2685 H         1 <0>         0.1469
     32 H11        -2.4151    4.8318   -0.1436 H         1 <0>         0.1556
     33 H12        -0.0579    0.0451    0.1201 H         1 <0>         0.2323
     34 H13         4.0704    0.6847   -1.6868 H         1 <0>         0.0925
     35 H14         2.8911    1.3719   -2.8292 H         1 <0>         0.0814
     36 H15         3.4027    2.3106   -1.4062 H         1 <0>         0.0823
     37 N2         -5.4798    4.3348    1.6429 N.2       1 <0>        -0.8983
@<TRIPOS>BOND
     1    1    2 1
     2    1   22 1
     3    1   23 1
     4    1   24 1
     5    2    7 ar
     6    2    3 ar
     7    3    4 ar
     8    3   25 1
     9    4    5 ar
    10    4   26 1
    11    5    6 ar
    12    5   37 1
    13    6    7 ar
    14    6   27 1
    15    7   28 1
    16    8    9 2
    17    8   10 2
    18    8   11 1
    19    8   37 1
    20   11   16 ar
    21   11   12 ar
    22   12   13 ar
    23   12   29 1
    24   13   14 ar
    25   13   30 1
    26   14   15 ar
    27   14   17 1
    28   15   16 ar
    29   15   31 1
    30   16   32 1
    31   17   18 am
    32   17   33 1
    33   18   19 2
    34   18   20 1
    35   20   21 1
    36   21   34 1
    37   21   35 1
    38   21   36 1
@<TRIPOS>MOLECULE
ZINC00042824
   41    42     0     0     0
SMALL
USER_CHARGES

@<TRIPOS>ATOM
      1 C1         13.3833    3.5179   -1.9269 C.3       1 <0>        -0.1841
      2 C2         12.2086    4.1467   -2.6309 C.ar      1 <0>        -0.0183
      3 C3         12.0582    3.9933   -3.9964 C.ar      1 <0>        -0.1535
      4 C4         10.9806    4.5701   -4.6422 C.ar      1 <0>        -0.0230
      5 C5         10.0530    5.2996   -3.9223 C.ar      1 <0>        -0.7682
      6 C6         10.2060    5.4571   -2.5575 C.ar      1 <0>        -0.0226
      7 C7         11.2813    4.8766   -1.9110 C.ar      1 <0>        -0.1503
      8 S1          8.6795    6.0348   -4.7454 S.o2      1 <0>         2.7642
      9 O1          9.0623    6.2030   -6.1034 O.2       1 <0>        -0.9182
     10 O2          8.2534    7.1207   -3.9339 O.2       1 <0>        -0.9121
     11 N1          7.4505    4.9249   -4.7341 N.pl3     1 <0>        -0.8893
     12 C8          6.8478    4.5122   -3.4642 C.3       1 <0>         0.0090
     13 C9          5.5253    3.7930   -3.7372 C.3       1 <0>        -0.1979
     14 C10         4.9054    3.3684   -2.4309 C.2       1 <0>         0.3030
     15 O3          5.4661    3.6167   -1.3845 O.2       1 <0>        -0.3449
     16 N2          3.7278    2.7128   -2.4254 N.am      1 <0>        -0.3273
     17 C11         3.0980    2.4161   -1.2117 C.ar      1 <0>         0.0741
     18 C12         2.3537    1.2503   -1.0811 C.ar      1 <0>        -0.1720
     19 C13         1.7327    0.9570    0.1173 C.ar      1 <0>        -0.0977
     20 C14         1.8539    1.8193    1.1906 C.ar      1 <0>        -0.1695
     21 C15         2.5913    2.9880    1.0642 C.ar      1 <0>         0.0894
     22 C16         3.2164    3.2856   -0.1368 C.ar      1 <0>        -0.1540
     23 O4          2.7052    3.8375    2.1188 O.3       1 <0>        -0.2865
     24 H1         14.2172    4.2197   -1.9137 H         1 <0>         0.0945
     25 H2         13.1025    3.2680   -0.9037 H         1 <0>         0.0877
     26 H3         13.6799    2.6111   -2.4540 H         1 <0>         0.0860
     27 H4         12.7827    3.4231   -4.5588 H         1 <0>         0.1365
     28 H5         10.8632    4.4505   -5.7091 H         1 <0>         0.1479
     29 H6          9.4837    6.0307   -1.9957 H         1 <0>         0.1520
     30 H7         11.3986    4.9962   -0.8441 H         1 <0>         0.1391
     31 H8          7.1297    4.5480   -5.5683 H         1 <0>         0.2407
     32 H9          6.6626    5.3915   -2.8472 H         1 <0>         0.1181
     33 H10         7.5269    3.8383   -2.9418 H         1 <0>         0.0948
     34 H11         5.7106    2.9137   -4.3542 H         1 <0>         0.1049
     35 H12         4.8463    4.4669   -4.2596 H         1 <0>         0.1128
     36 H13         3.3170    2.4467   -3.2628 H         1 <0>         0.2331
     37 H14         2.2609    0.5728   -1.9170 H         1 <0>         0.1299
     38 H15         1.1548    0.0501    0.2171 H         1 <0>         0.1347
     39 H16         1.3709    1.5851    2.1278 H         1 <0>         0.1405
     40 H17         3.7941    4.1927   -0.2358 H         1 <0>         0.1689
     41 H18         2.0156    4.5145    2.1548 H         1 <0>         0.2275
@<TRIPOS>BOND
     1    1    2 1
     2    1   24 1
     3    1   25 1
     4    1   26 1
     5    2    7 ar
     6    2    3 ar
     7    3    4 ar
     8    3   27 1
     9    4    5 ar
    10    4   28 1
    11    5    6 ar
    12    5    8 1
    13    6    7 ar
    14    6   29 1
    15    7   30 1
    16    8    9 2
    17    8   10 2
    18    8   11 1
    19   11   12 1
    20   11   31 1
    21   12   13 1
    22   12   32 1
    23   12   33 1
    24   13   14 1
    25   13   34 1
    26   13   35 1
    27   14   15 2
    28   14   16 am
    29   16   17 1
    30   16   36 1
    31   17   22 ar
    32   17   18 ar
    33   18   19 ar
    34   18   37 1
    35   19   20 ar
    36   19   38 1
    37   20   21 ar
    38   20   39 1
    39   21   22 ar
    40   21   23 1
    41   22   40 1
    42   23   41 1
@<TRIPOS>MOLECULE
ZINC00044363
   41    43     0     0     0
SMALL
USER_CHARGES

@<TRIPOS>ATOM
      1 C1         -2.3608    1.4862   -2.4869 C.3       1 <0>        -0.1855
      2 C2         -3.0002    1.0952   -1.1794 C.ar      1 <0>        -0.0577
      3 C3         -4.1870    0.3884   -1.1742 C.ar      1 <0>        -0.1197
      4 C4         -4.7737    0.0285    0.0248 C.ar      1 <0>        -0.1174
      5 C5         -4.1750    0.3747    1.2225 C.ar      1 <0>        -0.1304
      6 C6         -2.9860    1.0771    1.2241 C.ar      1 <0>        -0.1231
      7 C7         -2.3968    1.4447    0.0213 C.ar      1 <0>         0.0355
      8 N1         -1.1946    2.1607    0.0195 N.am      1 <0>        -0.3216
      9 C8         -1.2145    3.6256    0.0275 C.3       1 <0>         0.1388
     10 N2         -1.2276    4.1213   -1.3510 N.am      1 <0>        -0.3408
     11 C9         -2.3435    4.3642   -2.0615 C.2       1 <0>         0.3663
     12 O1         -3.4821    4.2081   -1.6675 O.2       1 <0>        -0.3111
     13 C10        -1.9554    4.8507   -3.3986 C.ar      1 <0>        -0.2070
     14 C11        -2.6612    5.2482   -4.5262 C.ar      1 <0>        -0.0083
     15 C12        -1.9785    5.6629   -5.6541 C.ar      1 <0>        -0.2110
     16 C13        -0.5883    5.6835   -5.6672 C.ar      1 <0>         0.1387
     17 C14         0.1319    5.2862   -4.5399 C.ar      1 <0>        -0.1431
     18 C15        -0.5442    4.8706   -3.4078 C.ar      1 <0>        -0.0808
     19 C16        -0.1253    4.3990   -2.0704 C.2       1 <0>         0.3466
     20 O2          1.0209    4.2799   -1.6869 O.2       1 <0>        -0.2642
     21 N3          0.0872    6.1023   -6.8082 N.pl3     1 <0>        -0.4055
     22 C17        -0.0184    1.5028    0.0103 C.2       1 <0>         0.3043
     23 O3          1.0236    2.1234    0.0037 O.2       1 <0>        -0.3376
     24 C18         0.0021   -0.0041    0.0020 C.3       1 <0>        -0.2379
     25 H1         -1.6811    0.6973   -2.8092 H         1 <0>         0.0862
     26 H2         -3.1345    1.6297   -3.2411 H         1 <0>         0.0882
     27 H3         -1.8043    2.4142   -2.3560 H         1 <0>         0.0933
     28 H4         -4.6568    0.1162   -2.1078 H         1 <0>         0.1351
     29 H5         -5.7015   -0.5244    0.0262 H         1 <0>         0.1314
     30 H6         -4.6354    0.0915    2.1575 H         1 <0>         0.1327
     31 H7         -2.5167    1.3433    2.1596 H         1 <0>         0.1364
     32 H8         -2.1068    3.9740    0.5475 H         1 <0>         0.1243
     33 H9         -0.3271    3.9982    0.5392 H         1 <0>         0.1445
     34 H10        -3.7411    5.2335   -4.5220 H         1 <0>         0.1475
     35 H11        -2.5282    5.9723   -6.5307 H         1 <0>         0.1388
     36 H12         1.2117    5.3029   -4.5518 H         1 <0>         0.1505
     37 H13         1.0570    6.1179   -6.8194 H         1 <0>         0.2266
     38 H14        -0.4114    6.3789   -7.5929 H         1 <0>         0.2257
     39 H15         0.0168   -0.3729    1.0276 H         1 <0>         0.1042
     40 H16        -0.8878   -0.3767   -0.5053 H         1 <0>         0.0955
     41 H17         0.8920   -0.3525   -0.5222 H         1 <0>         0.1117
@<TRIPOS>BOND
     1    1    2 1
     2    1   25 1
     3    1   26 1
     4    1   27 1
     5    2    7 ar
     6    2    3 ar
     7    3    4 ar
     8    3   28 1
     9    4    5 ar
    10    4   29 1
    11    5    6 ar
    12    5   30 1
    13    6    7 ar
    14    6   31 1
    15    7    8 1
    16    8    9 1
    17    8   22 am
    18    9   10 1
    19    9   32 1
    20    9   33 1
    21   10   19 am
    22   10   11 am
    23   11   12 2
    24   11   13 1
    25   13   18 ar
    26   13   14 ar
    27   14   15 ar
    28   14   34 1
    29   15   16 ar
    30   15   35 1
    31   16   17 ar
    32   16   21 1
    33   17   18 ar
    34   17   36 1
    35   18   19 1
    36   19   20 2
    37   21   37 1
    38   21   38 1
    39   22   23 2
    40   22   24 1
    41   24   39 1
    42   24   40 1
    43   24   41 1
@<TRIPOS>MOLECULE
ZINC00046565
   43    45     0     0     0
SMALL
USER_CHARGES

@<TRIPOS>ATOM
      1 C1         -4.5781   -6.9066   -0.6219 C.3       1 <0>        -0.1810
      2 N1         -3.8171   -6.3528    0.5060 N.4       1 <0>         0.1276
      3 C2         -2.4441   -6.8742    0.4734 C.3       1 <0>        -0.1847
      4 C3         -4.4592   -6.7428    1.7684 C.3       1 <0>        -0.1811
      5 C4         -3.7885   -4.9585    0.4090 C.ar      1 <0>        -0.1521
      6 C5         -4.9735   -4.2433    0.4190 C.ar      1 <0>        -0.1115
      7 C6         -4.9536   -2.8679    0.3233 C.ar      1 <0>        -0.0888
      8 C7         -3.7320   -2.1957    0.2160 C.ar      1 <0>         0.0083
      9 C8         -2.5393   -2.9259    0.2013 C.ar      1 <0>        -0.0570
     10 C9         -2.5755   -4.3005    0.3032 C.ar      1 <0>        -0.1181
     11 C10        -3.7020   -0.7279    0.1130 C.2       1 <0>        -0.0483
     12 N2         -2.5606   -0.1043    0.0130 N.2       1 <0>        -0.0817
     13 C11        -2.5357    1.2447   -0.1899 C.ar      1 <0>         0.0166
     14 C12        -3.3370    1.8267   -1.1805 C.ar      1 <0>        -0.1419
     15 C13        -3.3114    3.1896   -1.3857 C.ar      1 <0>        -0.0987
     16 C14        -2.5040    4.0085   -0.6106 C.ar      1 <0>        -0.0662
     17 C15        -1.6967    3.4556    0.3724 C.ar      1 <0>        -0.0851
     18 C16        -1.7077    2.0635    0.5904 C.ar      1 <0>        -0.0820
     19 C17        -0.8424    1.5065    1.6464 C.2       1 <0>         0.3545
     20 O1         -0.8323    0.3099    1.8620 O.2       1 <0>        -0.3492
     21 N3         -0.0588    2.3324    2.3669 N.am      1 <0>        -0.2716
     22 H1          0.5282    1.9461    3.0784 H         1 <0>         0.2727
     23 N4         -0.0419    3.7109    2.1498 N.am      1 <0>        -0.2740
     24 H2          0.5566    4.2831    2.7105 H         1 <0>         0.2764
     25 C18        -0.8081    4.2936    1.2070 C.2       1 <0>         0.3504
     26 O2         -0.7698    5.4973    1.0439 O.2       1 <0>        -0.3320
     27 H3         -4.1017   -6.6172   -1.5586 H         1 <0>         0.1432
     28 H4         -4.6004   -7.9938   -0.5463 H         1 <0>         0.1324
     29 H5         -5.5968   -6.5198   -0.5977 H         1 <0>         0.1372
     30 H6         -1.8795   -6.4633    1.3103 H         1 <0>         0.1432
     31 H7         -2.4664   -7.9613    0.5490 H         1 <0>         0.1344
     32 H8         -1.9677   -6.5848   -0.4633 H         1 <0>         0.1419
     33 H9         -5.4779   -6.3560    1.7926 H         1 <0>         0.1374
     34 H10        -4.4814   -7.8300    1.8440 H         1 <0>         0.1320
     35 H11        -3.8945   -6.3319    2.6053 H         1 <0>         0.1445
     36 H12        -5.9161   -4.7639    0.5016 H         1 <0>         0.1441
     37 H13        -5.8791   -2.3112    0.3309 H         1 <0>         0.1645
     38 H14        -1.5923   -2.4141    0.1143 H         1 <0>         0.1974
     39 H15        -1.6551   -4.8655    0.2961 H         1 <0>         0.1526
     40 H16        -4.6249   -0.1671    0.1201 H         1 <0>         0.1298
     41 H17        -3.9781    1.2042   -1.7871 H         1 <0>         0.1408
     42 H18        -3.9342    3.6257   -2.1528 H         1 <0>         0.1512
     43 H19        -2.4937    5.0748   -0.7816 H         1 <0>         0.1719
@<TRIPOS>BOND
     1    1    2 1
     2    1   27 1
     3    1   28 1
     4    1   29 1
     5    2    3 1
     6    2    4 1
     7    2    5 1
     8    3   30 1
     9    3   31 1
    10    3   32 1
    11    4   33 1
    12    4   34 1
    13    4   35 1
    14    5   10 ar
    15    5    6 ar
    16    6    7 ar
    17    6   36 1
    18    7    8 ar
    19    7   37 1
    20    8    9 ar
    21    8   11 1
    22    9   10 ar
    23    9   38 1
    24   10   39 1
    25   11   12 2
    26   11   40 1
    27   12   13 1
    28   13   18 ar
    29   13   14 ar
    30   14   15 ar
    31   14   41 1
    32   15   16 ar
    33   15   42 1
    34   16   17 ar
    35   16   43 1
    36   17   25 1
    37   17   18 ar
    38   18   19 1
    39   19   20 2
    40   19   21 am
    41   21   22 1
    42   21   23 1
    43   23   24 1
    44   23   25 am
    45   25   26 2
@<TRIPOS>MOLECULE
ZINC00046591
   42    44     0     0     0
SMALL
USER_CHARGES

@<TRIPOS>ATOM
      1 C1          3.7975    5.7584    0.7145 C.3       1 <0>        -0.0507
      2 O1          2.5244    5.0619    0.7626 O.3       1 <0>        -0.2678
      3 C2          2.4134    3.9387    0.0265 C.2       1 <0>         0.3513
      4 O2          3.3547    3.5519   -0.6374 O.2       1 <0>        -0.3646
      5 C3          1.1495    3.1789    0.0267 C.ar      1 <0>        -0.1339
      6 C4          1.0326    2.0133   -0.7364 C.ar      1 <0>        -0.0450
      7 C5         -0.1485    1.3064   -0.7335 C.ar      1 <0>        -0.1807
      8 C6         -1.2271    1.7538    0.0232 C.ar      1 <0>         0.0948
      9 C7         -1.1125    2.9104    0.7884 C.ar      1 <0>        -0.1486
     10 C8          0.0656    3.6223    0.7903 C.ar      1 <0>        -0.0592
     11 N1         -2.4237    1.0384    0.0192 N.am      1 <0>        -0.3260
     12 C9         -3.5985    1.6895    0.1300 C.2       1 <0>         0.3134
     13 O3         -3.6215    2.9021    0.1369 O.2       1 <0>        -0.3551
     14 C10        -4.8836    0.9109    0.2454 C.3       1 <0>        -0.2095
     15 C11        -6.0602    1.8825    0.3577 C.3       1 <0>         0.0538
     16 H1         -6.0471    2.5703   -0.4877 H         1 <0>         0.1497
     17 C12        -7.3545    1.1090    0.3612 C.2       1 <0>         0.2950
     18 O4         -7.9225    0.8856   -0.6870 O.2       1 <0>        -0.3511
     19 N2         -7.8865    0.6643    1.5142 N.am      1 <0>        -0.3032
     20 C13        -7.3322    1.0258    2.7474 C.ar      1 <0>         0.0079
     21 C14        -7.7429    0.4030    3.9153 C.ar      1 <0>        -0.1370
     22 C15        -7.1692    0.7561    5.1229 C.ar      1 <0>        -0.1401
     23 C16        -6.1868    1.7281    5.1723 C.ar      1 <0>        -0.1160
     24 C17        -5.7739    2.3588    4.0121 C.ar      1 <0>        -0.1593
     25 C18        -6.3468    2.0123    2.8010 C.ar      1 <0>         0.0689
     26 N3         -5.9529    2.6422    1.6117 N.pl3     1 <0>        -0.3814
     27 H2          4.5874    5.0965    1.0693 H         1 <0>         0.0822
     28 H3          4.0088    6.0587   -0.3118 H         1 <0>         0.0832
     29 H4          3.7520    6.6430    1.3498 H         1 <0>         0.1026
     30 H5          1.8681    1.6678   -1.3272 H         1 <0>         0.1579
     31 H6         -0.2395    0.4059   -1.3228 H         1 <0>         0.1372
     32 H7         -1.9503    3.2524    1.3777 H         1 <0>         0.1621
     33 H8          0.1526    4.5221    1.3812 H         1 <0>         0.1525
     34 H9         -2.4107    0.0720   -0.0634 H         1 <0>         0.2367
     35 H10        -5.0109    0.2867   -0.6390 H         1 <0>         0.1202
     36 H11        -4.8476    0.2798    1.1334 H         1 <0>         0.1189
     37 H12        -8.6643    0.0853    1.4904 H         1 <0>         0.2452
     38 H13        -8.5095   -0.3571    3.8824 H         1 <0>         0.1339
     39 H14        -7.4898    0.2699    6.0324 H         1 <0>         0.1337
     40 H15        -5.7412    1.9960    6.1189 H         1 <0>         0.1336
     41 H16        -5.0071    3.1183    4.0515 H         1 <0>         0.1397
     42 H17        -5.6188    3.5528    1.6164 H         1 <0>         0.2546
@<TRIPOS>BOND
     1    1    2 1
     2    1   27 1
     3    1   28 1
     4    1   29 1
     5    2    3 1
     6    3    4 2
     7    3    5 1
     8    5   10 ar
     9    5    6 ar
    10    6    7 ar
    11    6   30 1
    12    7    8 ar
    13    7   31 1
    14    8    9 ar
    15    8   11 1
    16    9   10 ar
    17    9   32 1
    18   10   33 1
    19   11   12 am
    20   11   34 1
    21   12   13 2
    22   12   14 1
    23   14   15 1
    24   14   35 1
    25   14   36 1
    26   15   16 1
    27   15   26 1
    28   15   17 1
    29   17   18 2
    30   17   19 am
    31   19   20 1
    32   19   37 1
    33   20   25 ar
    34   20   21 ar
    35   21   22 ar
    36   21   38 1
    37   22   23 ar
    38   22   39 1
    39   23   24 ar
    40   23   40 1
    41   24   25 ar
    42   24   41 1
    43   25   26 1
    44   26   42 1
@<TRIPOS>MOLECULE
ZINC00046592
   42    44     0     0     0
SMALL
USER_CHARGES

@<TRIPOS>ATOM
      1 C1         -3.4278   12.8716    4.7782 C.3       1 <0>        -0.0507
      2 O1         -3.3655   11.4862    4.3477 O.3       1 <0>        -0.2678
      3 C2         -3.8060   10.5552    5.2166 C.2       1 <0>         0.3513
      4 O2         -4.2306   10.8918    6.3041 O.2       1 <0>        -0.3645
      5 C3         -3.7728    9.1279    4.8475 C.ar      1 <0>        -0.1339
      6 C4         -4.2294    8.1606    5.7477 C.ar      1 <0>        -0.0450
      7 C5         -4.1973    6.8292    5.3996 C.ar      1 <0>        -0.1806
      8 C6         -3.7111    6.4457    4.1535 C.ar      1 <0>         0.0948
      9 C7         -3.2505    7.4053    3.2573 C.ar      1 <0>        -0.1486
     10 C8         -3.2849    8.7389    3.5964 C.ar      1 <0>        -0.0591
     11 N1         -3.6801    5.0964    3.8044 N.am      1 <0>        -0.3260
     12 C9         -3.8769    4.7271    2.5233 C.2       1 <0>         0.3135
     13 O3         -4.1754    5.5579    1.6917 O.2       1 <0>        -0.3553
     14 C10        -3.7260    3.2818    2.1241 C.3       1 <0>        -0.2097
     15 C11        -4.0015    3.1350    0.6262 C.3       1 <0>         0.0536
     16 H1         -4.9810    3.5524    0.3929 H         1 <0>         0.1500
     17 C12        -3.9719    1.6756    0.2484 C.2       1 <0>         0.2945
     18 O4         -4.9965    1.0270    0.2787 O.2       1 <0>        -0.3511
     19 N2         -2.8210    1.0850   -0.1216 N.am      1 <0>        -0.3031
     20 C13        -1.6523    1.8350   -0.2964 C.ar      1 <0>         0.0072
     21 C14        -0.4304    1.2079   -0.4791 C.ar      1 <0>        -0.1366
     22 C15         0.7133    1.9647   -0.6567 C.ar      1 <0>        -0.1403
     23 C16         0.6455    3.3459   -0.6481 C.ar      1 <0>        -0.1155
     24 C17        -0.5701    3.9810   -0.4660 C.ar      1 <0>        -0.1597
     25 C18        -1.7187    3.2292   -0.2921 C.ar      1 <0>         0.0695
     26 N3         -2.9664    3.8479   -0.1282 N.pl3     1 <0>        -0.3804
     27 H2         -3.0439   13.5155    3.9870 H         1 <0>         0.1026
     28 H3         -4.4623   13.1387    4.9942 H         1 <0>         0.0832
     29 H4         -2.8242   13.0004    5.6766 H         1 <0>         0.0822
     30 H5         -4.6073    8.4576    6.7148 H         1 <0>         0.1578
     31 H6         -4.5503    6.0815    6.0944 H         1 <0>         0.1372
     32 H7         -2.8697    7.1037    2.2927 H         1 <0>         0.1621
     33 H8         -2.9313    9.4835    2.8986 H         1 <0>         0.1525
     34 H9         -3.5169    4.4233    4.4836 H         1 <0>         0.2367
     35 H10        -4.4356    2.6738    2.6853 H         1 <0>         0.1199
     36 H11        -2.7110    2.9489    2.3411 H         1 <0>         0.1190
     37 H12        -2.8009    0.1265   -0.2690 H         1 <0>         0.2452
     38 H13        -0.3719    0.1296   -0.4872 H         1 <0>         0.1339
     39 H14         1.6644    1.4745   -0.8032 H         1 <0>         0.1338
     40 H15         1.5436    3.9301   -0.7835 H         1 <0>         0.1337
     41 H16        -0.6222    5.0597   -0.4592 H         1 <0>         0.1396
     42 H17        -3.1444    4.7211   -0.5113 H         1 <0>         0.2542
@<TRIPOS>BOND
     1    1    2 1
     2    1   27 1
     3    1   28 1
     4    1   29 1
     5    2    3 1
     6    3    4 2
     7    3    5 1
     8    5   10 ar
     9    5    6 ar
    10    6    7 ar
    11    6   30 1
    12    7    8 ar
    13    7   31 1
    14    8    9 ar
    15    8   11 1
    16    9   10 ar
    17    9   32 1
    18   10   33 1
    19   11   12 am
    20   11   34 1
    21   12   13 2
    22   12   14 1
    23   14   15 1
    24   14   35 1
    25   14   36 1
    26   15   16 1
    27   15   26 1
    28   15   17 1
    29   17   18 2
    30   17   19 am
    31   19   20 1
    32   19   37 1
    33   20   25 ar
    34   20   21 ar
    35   21   22 ar
    36   21   38 1
    37   22   23 ar
    38   22   39 1
    39   23   24 ar
    40   23   40 1
    41   24   25 ar
    42   24   41 1
    43   25   26 1
    44   26   42 1
@<TRIPOS>MOLECULE
ZINC00051499
   36    39     0     0     0
SMALL
USER_CHARGES

@<TRIPOS>ATOM
      1 C1          2.5003    1.5459   -0.0140 C.3       1 <0>        -0.1339
      2 C2          1.0414    1.9233    0.0024 C.2       1 <0>        -0.0891
      3 C3         -0.0126    1.0758    0.0080 C.2       1 <0>        -0.2355
      4 C4         -1.1432    1.9353    0.0171 C.2       1 <0>         0.0022
      5 N1         -0.6740    3.1554    0.0255 N.2       1 <0>        -0.0765
      6 O1          0.5351    3.1648    0.0140 O.3       1 <0>         0.0475
      7 N2         -2.4851    1.5540    0.0204 N.am      1 <0>        -0.2825
      8 C5         -2.8143    0.2471    0.0146 C.2       1 <0>         0.3260
      9 O2         -1.9439   -0.5974    0.0065 O.2       1 <0>        -0.3413
     10 C6         -4.2639   -0.1648    0.0181 C.3       1 <0>        -0.3238
     11 S1         -4.3778   -1.9712    0.0087 S.3       1 <0>         0.3716
     12 C7         -6.1289   -2.1673    0.0146 C.ar      1 <0>        -0.1281
     13 N3         -6.6468   -3.3887    0.0045 N.ar      1 <0>        -0.1962
     14 C8         -7.9682   -3.5346    0.0144 C.ar      1 <0>         0.1243
     15 C9         -8.7701   -2.3745    0.0239 C.ar      1 <0>        -0.1404
     16 C10       -10.1684   -2.8381    0.0269 C.ar      1 <0>        -0.0723
     17 C11       -11.3975   -2.1827    0.0349 C.ar      1 <0>        -0.0536
     18 C12       -12.5647   -2.9159    0.0352 C.ar      1 <0>        -0.1555
     19 C13       -12.5188   -4.3014    0.0270 C.ar      1 <0>        -0.0848
     20 C14       -11.3092   -4.9626    0.0190 C.ar      1 <0>        -0.1518
     21 C15       -10.1204   -4.2404    0.0191 C.ar      1 <0>         0.0548
     22 N4         -8.7917   -4.6331    0.0117 N.pl3     1 <0>        -0.2058
     23 H1         -8.4865   -5.5538    0.0050 H         1 <0>         0.2588
     24 N5         -8.1912   -1.1829    0.0281 N.ar      1 <0>         0.0417
     25 N6         -6.9056   -1.0888    0.0235 N.ar      1 <0>        -0.1568
     26 H2          2.8420    1.4607   -1.0455 H         1 <0>         0.0990
     27 H3          3.0800    2.3136    0.4986 H         1 <0>         0.0954
     28 H4          2.6342    0.5904    0.4932 H         1 <0>         0.1027
     29 H5          0.0021   -0.0041    0.0020 H         1 <0>         0.2085
     30 H6         -3.1812    2.2295    0.0268 H         1 <0>         0.2480
     31 H7         -4.7503    0.2253    0.9121 H         1 <0>         0.1420
     32 H8         -4.7573    0.2350   -0.8678 H         1 <0>         0.1420
     33 H9        -11.4358   -1.1034    0.0406 H         1 <0>         0.1488
     34 H10       -13.5184   -2.4091    0.0414 H         1 <0>         0.1395
     35 H11       -13.4385   -4.8676    0.0272 H         1 <0>         0.1388
     36 H12       -11.2846   -6.0423    0.0123 H         1 <0>         0.1360
@<TRIPOS>BOND
     1    1    2 1
     2    1   26 1
     3    1   27 1
     4    1   28 1
     5    2    6 1
     6    2    3 2
     7    3    4 1
     8    3   29 1
     9    4    5 2
    10    4    7 1
    11    5    6 1
    12    7    8 am
    13    7   30 1
    14    8    9 2
    15    8   10 1
    16   10   11 1
    17   10   31 1
    18   10   32 1
    19   11   12 1
    20   12   25 ar
    21   12   13 ar
    22   13   14 ar
    23   14   22 1
    24   14   15 ar
    25   15   16 1
    26   15   24 ar
    27   16   21 ar
    28   16   17 ar
    29   17   18 ar
    30   17   33 1
    31   18   19 ar
    32   18   34 1
    33   19   20 ar
    34   19   35 1
    35   20   21 ar
    36   20   36 1
    37   21   22 1
    38   22   23 1
    39   24   25 ar
@<TRIPOS>MOLECULE
ZINC00053422
   42    45     0     0     0
SMALL
USER_CHARGES

@<TRIPOS>ATOM
      1 C1         -5.0286   -0.2893    1.4894 C.3       1 <0>        -0.1858
      2 C2         -5.0650    1.2031    1.2833 C.2       1 <0>         0.0347
      3 C3         -6.2199    1.9010    1.4425 C.2       1 <0>        -0.2734
      4 C4         -6.2267    3.2963    1.2432 C.2       1 <0>         0.3576
      5 O1         -7.2676    3.9124    1.3885 O.2       1 <0>        -0.3104
      6 O2         -5.1148    3.9625    0.8978 O.3       1 <0>        -0.1798
      7 C5         -3.9363    3.3286    0.7247 C.ar      1 <0>         0.1594
      8 C6         -3.8567    1.9392    0.9068 C.ar      1 <0>        -0.1522
      9 C7         -2.6338    1.2735    0.7282 C.ar      1 <0>        -0.0741
     10 C8         -1.5051    1.9779    0.3731 C.ar      1 <0>         0.0474
     11 C9         -1.5663    3.3667    0.1929 C.ar      1 <0>         0.0488
     12 C10        -2.7846    4.0376    0.3647 C.ar      1 <0>        -0.1407
     13 C11        -2.4983    5.4546    0.0962 C.2       1 <0>         0.0378
     14 C12        -1.1888    5.5185   -0.2065 C.2       1 <0>        -0.1536
     15 O3         -0.6442    4.2878   -0.1511 O.3       1 <0>        -0.0690
     16 N1         -3.4070    6.5240    0.1456 N.pl3     1 <0>        -0.2829
     17 C13        -2.9505    7.8355   -0.0013 C.ar      1 <0>         0.0890
     18 C14        -1.7176    8.2063    0.5213 C.ar      1 <0>        -0.1898
     19 C15        -1.2671    9.5029    0.3699 C.ar      1 <0>        -0.0988
     20 C16        -2.0460   10.4344   -0.2920 C.ar      1 <0>        -0.1583
     21 C17        -3.2760   10.0701   -0.8088 C.ar      1 <0>        -0.0959
     22 C18        -3.7307    8.7741   -0.6653 C.ar      1 <0>        -0.1687
     23 N2         -0.2891    1.3043    0.1967 N.am      1 <0>        -0.3166
     24 C19        -0.0998    0.0959    0.7626 C.2       1 <0>         0.3035
     25 O4         -0.9416   -0.3649    1.5045 O.2       1 <0>        -0.3645
     26 C20         1.1576   -0.6828    0.4737 C.3       1 <0>        -0.2378
     27 H1         -4.7973   -0.5065    2.5321 H         1 <0>         0.1070
     28 H2         -5.9998   -0.7147    1.2364 H         1 <0>         0.0925
     29 H3         -4.2626   -0.7260    0.8486 H         1 <0>         0.0964
     30 H4         -7.1291    1.3886    1.7206 H         1 <0>         0.1707
     31 H5         -2.5780    0.2042    0.8696 H         1 <0>         0.1969
     32 H6         -0.6536    6.4227   -0.4563 H         1 <0>         0.2186
     33 H7         -4.3518    6.3517    0.2818 H         1 <0>         0.2589
     34 H8         -1.1106    7.4804    1.0419 H         1 <0>         0.1419
     35 H9         -0.3072    9.7908    0.7725 H         1 <0>         0.1309
     36 H10        -1.6931   11.4488   -0.4053 H         1 <0>         0.1305
     37 H11        -3.8819   10.8002   -1.3248 H         1 <0>         0.1327
     38 H12        -4.6916    8.4905   -1.0685 H         1 <0>         0.1375
     39 H13         0.4150    1.7060   -0.3360 H         1 <0>         0.2423
     40 H14         1.9223   -0.4229    1.2058 H         1 <0>         0.1106
     41 H15         0.9456   -1.7504    0.5333 H         1 <0>         0.1192
     42 H16         1.5145   -0.4385   -0.5268 H         1 <0>         0.0875
@<TRIPOS>BOND
     1    1    2 1
     2    1   27 1
     3    1   28 1
     4    1   29 1
     5    2    8 1
     6    2    3 2
     7    3    4 1
     8    3   30 1
     9    4    5 2
    10    4    6 1
    11    6    7 1
    12    7   12 ar
    13    7    8 ar
    14    8    9 ar
    15    9   10 ar
    16    9   31 1
    17   10   11 ar
    18   10   23 1
    19   11   15 1
    20   11   12 ar
    21   12   13 1
    22   13   14 2
    23   13   16 1
    24   14   15 1
    25   14   32 1
    26   16   17 1
    27   16   33 1
    28   17   22 ar
    29   17   18 ar
    30   18   19 ar
    31   18   34 1
    32   19   20 ar
    33   19   35 1
    34   20   21 ar
    35   20   36 1
    36   21   22 ar
    37   21   37 1
    38   22   38 1
    39   23   24 am
    40   23   39 1
    41   24   25 2
    42   24   26 1
    43   26   40 1
    44   26   41 1
    45   26   42 1
@<TRIPOS>MOLECULE
ZINC00056094
   38    40     0     0     0
SMALL
USER_CHARGES

@<TRIPOS>ATOM
      1 C1         -1.3818    5.8321    0.0472 C.3       1 <0>        -0.0653
      2 O1         -0.0930    5.2152    0.0315 O.3       1 <0>        -0.1949
      3 C2         -0.0593    3.8556    0.0234 C.ar      1 <0>         0.0655
      4 C3         -1.2423    3.1329    0.0308 C.ar      1 <0>        -0.1984
      5 C4         -1.2160    1.7492    0.0173 C.ar      1 <0>        -0.1055
      6 C5         -0.0126    1.0758    0.0080 C.ar      1 <0>        -0.1355
      7 C6          1.1879    1.7911    0.0003 C.ar      1 <0>        -0.0446
      8 C7          1.1609    3.1911    0.0082 C.ar      1 <0>         0.0848
      9 O2          2.3225    3.8965    0.0013 O.3       1 <0>        -0.2502
     10 C8          2.4762    1.0754   -0.0163 C.2       1 <0>        -0.1127
     11 N1          3.5895    1.7430   -0.0234 N.2       1 <0>         0.0375
     12 N2          4.8142    1.0627   -0.0392 N.am      1 <0>        -0.3368
     13 C9          5.9700    1.7558   -0.0466 C.2       1 <0>         0.3897
     14 O3          5.9500    2.9724   -0.0394 O.2       1 <0>        -0.2915
     15 C10         7.2562    1.0413   -0.0632 C.2       1 <0>        -0.1669
     16 C11         8.5165    1.6076   -0.0723 C.2       1 <0>        -0.1356
     17 C12         9.4122    0.5203   -0.0867 C.2       1 <0>        -0.0436
     18 N3          8.6943   -0.5852   -0.0858 N.2       1 <0>        -0.0602
     19 N4          7.4394   -0.3132   -0.0668 N.pl3     1 <0>        -0.1089
     20 H1          6.7050   -0.9918   -0.0562 H         1 <0>         0.2828
     21 C13        10.8888    0.6039   -0.1000 C.2       1 <0>         0.0191
     22 C14        11.7470   -0.4496   -0.1085 C.2       1 <0>        -0.1804
     23 C15        13.0502    0.0882   -0.1234 C.2       1 <0>        -0.2226
     24 C16        12.9235    1.4291   -0.1141 C.2       1 <0>        -0.0913
     25 O4         11.6160    1.7373   -0.1000 O.3       1 <0>        -0.0487
     26 H2         -1.9397    5.5306   -0.8393 H         1 <0>         0.0652
     27 H3         -1.9230    5.5204    0.9405 H         1 <0>         0.0691
     28 H4         -1.2658    6.9159    0.0523 H         1 <0>         0.1125
     29 H5         -2.1891    3.6523    0.0427 H         1 <0>         0.1395
     30 H6         -2.1424    1.1940    0.0183 H         1 <0>         0.1346
     31 H7          0.0021   -0.0041    0.0020 H         1 <0>         0.1325
     32 H8          2.6506    4.1054   -0.8840 H         1 <0>         0.2381
     33 H9          2.4940   -0.0044   -0.0227 H         1 <0>         0.1157
     34 H10         4.8302    0.0929   -0.0450 H         1 <0>         0.1939
     35 H11         8.7625    2.6592   -0.0684 H         1 <0>         0.1901
     36 H12        11.4820   -1.4966   -0.1068 H         1 <0>         0.1661
     37 H13        13.9750   -0.4695   -0.1357 H         1 <0>         0.1569
     38 H14        13.7378    2.1387   -0.1177 H         1 <0>         0.2000
@<TRIPOS>BOND
     1    1    2 1
     2    1   26 1
     3    1   27 1
     4    1   28 1
     5    2    3 1
     6    3    8 ar
     7    3    4 ar
     8    4    5 ar
     9    4   29 1
    10    5    6 ar
    11    5   30 1
    12    6    7 ar
    13    6   31 1
    14    7    8 ar
    15    7   10 1
    16    8    9 1
    17    9   32 1
    18   10   11 2
    19   10   33 1
    20   11   12 1
    21   12   13 am
    22   12   34 1
    23   13   14 2
    24   13   15 1
    25   15   19 1
    26   15   16 2
    27   16   17 1
    28   16   35 1
    29   17   18 2
    30   17   21 1
    31   18   19 1
    32   19   20 1
    33   21   25 1
    34   21   22 2
    35   22   23 1
    36   22   36 1
    37   23   24 2
    38   23   37 1
    39   24   25 1
    40   24   38 1
@<TRIPOS>MOLECULE
ZINC00058582
   39    41     0     0     0
SMALL
USER_CHARGES

@<TRIPOS>ATOM
      1 C1        -11.2523    2.5074   -7.6866 C.3       1 <0>        -0.0628
      2 O1        -10.8464    2.5717   -6.3179 O.3       1 <0>        -0.2126
      3 C2         -9.5289    2.8050   -6.0751 C.ar      1 <0>         0.0808
      4 C3         -8.6474    2.9683   -7.1358 C.ar      1 <0>        -0.1923
      5 C4         -7.3069    3.2062   -6.8987 C.ar      1 <0>        -0.1236
      6 C5         -6.8330    3.2830   -5.5996 C.ar      1 <0>         0.0752
      7 C6         -7.7165    3.1188   -4.5245 C.ar      1 <0>        -0.0428
      8 C7         -9.0690    2.8733   -4.7722 C.ar      1 <0>        -0.1294
      9 C8         -7.2200    3.1986   -3.1392 C.2       1 <0>        -0.1120
     10 N1         -5.9615    3.4214   -2.9127 N.2       1 <0>         0.0341
     11 N2         -5.4895    3.4973   -1.5957 N.am      1 <0>        -0.3365
     12 C9         -4.1828    3.7287   -1.3605 C.2       1 <0>         0.2895
     13 O2         -3.4153    3.8713   -2.2891 O.2       1 <0>        -0.2840
     14 C10        -3.6751    3.8103    0.0560 C.3       1 <0>        -0.0035
     15 N3         -2.2329    4.0674    0.0438 N.pl3     1 <0>        -0.1831
     16 C11        -1.2298    3.1275    0.0297 C.ar      1 <0>        -0.0103
     17 C12        -1.2086    1.7369    0.0172 C.ar      1 <0>        -0.1399
     18 C13        -0.0126    1.0758    0.0080 C.ar      1 <0>        -0.0848
     19 C14         1.1844    1.7806    0.0003 C.ar      1 <0>        -0.1574
     20 C15         1.1907    3.1447    0.0071 C.ar      1 <0>        -0.0437
     21 C16        -0.0221    3.8467    0.0220 C.ar      1 <0>        -0.1165
     22 N4         -0.3275    5.1595    0.0315 N.2       1 <0>        -0.0658
     23 N5         -1.6036    5.3212    0.0442 N.2       1 <0>         0.0524
     24 O3         -5.5146    3.5165   -5.3681 O.3       1 <0>        -0.2622
     25 H1        -10.7151    1.7020   -8.1875 H         1 <0>         0.0680
     26 H2        -12.3242    2.3167   -7.7390 H         1 <0>         0.1100
     27 H3        -11.0273    3.4544   -8.1772 H         1 <0>         0.0700
     28 H4         -9.0113    2.9094   -8.1509 H         1 <0>         0.1393
     29 H5         -6.6272    3.3321   -7.7284 H         1 <0>         0.1465
     30 H6         -9.7549    2.7414   -3.9484 H         1 <0>         0.1457
     31 H7         -7.9033    3.0716   -2.3125 H         1 <0>         0.1169
     32 H8         -6.1032    3.3833   -0.8533 H         1 <0>         0.2026
     33 H9         -3.8718    2.8680    0.5674 H         1 <0>         0.1162
     34 H10        -4.1841    4.6203    0.5783 H         1 <0>         0.1327
     35 H11        -2.1346    1.1811    0.0190 H         1 <0>         0.1286
     36 H12         0.0021   -0.0041    0.0020 H         1 <0>         0.1351
     37 H13         2.1207    1.2425   -0.0115 H         1 <0>         0.1371
     38 H14         2.1275    3.6820    0.0014 H         1 <0>         0.1464
     39 H15        -4.9780    2.7144   -5.3066 H         1 <0>         0.2360
@<TRIPOS>BOND
     1    1    2 1
     2    1   25 1
     3    1   26 1
     4    1   27 1
     5    2    3 1
     6    3    8 ar
     7    3    4 ar
     8    4    5 ar
     9    4   28 1
    10    5    6 ar
    11    5   29 1
    12    6    7 ar
    13    6   24 1
    14    7    8 ar
    15    7    9 1
    16    8   30 1
    17    9   10 2
    18    9   31 1
    19   10   11 1
    20   11   12 am
    21   11   32 1
    22   12   13 2
    23   12   14 1
    24   14   15 1
    25   14   33 1
    26   14   34 1
    27   15   23 1
    28   15   16 1
    29   16   21 ar
    30   16   17 ar
    31   17   18 ar
    32   17   35 1
    33   18   19 ar
    34   18   36 1
    35   19   20 ar
    36   19   37 1
    37   20   21 ar
    38   20   38 1
    39   21   22 1
    40   22   23 2
    41   24   39 1
@<TRIPOS>MOLECULE
ZINC00060962
   36    38     0     0     0
SMALL
USER_CHARGES

@<TRIPOS>ATOM
      1 C1         -2.7421    1.3233    0.5165 C.3       1 <0>        -0.0678
      2 N1         -1.3628    1.7665    0.2989 N.pl3     1 <0>        -0.1603
      3 C2         -0.2519    0.9783    0.1758 C.2       1 <0>        -0.1327
      4 N2          0.7663    1.7696   -0.0110 N.2       1 <0>        -0.0820
      5 N3          0.3789    2.9951   -0.0097 N.2       1 <0>        -0.1066
      6 C3         -0.9190    3.0522    0.1797 C.2       1 <0>        -0.2168
      7 S1         -1.9030    4.5117    0.2586 S.3       1 <0>         0.2591
      8 C4         -0.6229    5.7675    0.0126 C.3       1 <0>        -0.1954
      9 C5         -1.2505    7.1373    0.0429 C.ar      1 <0>         0.1688
     10 N4         -1.6872    7.6871   -1.0768 N.ar      1 <0>        -0.3419
     11 C6         -2.2470    8.8944   -1.0532 C.ar      1 <0>         0.2776
     12 N5         -2.3567    9.5515    0.0964 N.ar      1 <0>        -0.3667
     13 C7         -1.9117    8.9978    1.2190 C.ar      1 <0>         0.2774
     14 N6         -1.3579    7.7876    1.1881 N.ar      1 <0>        -0.3403
     15 N7         -2.0239    9.6767    2.4167 N.pl3     1 <0>        -0.2593
     16 C8         -2.4990   10.9917    2.4332 C.ar      1 <0>         0.0728
     17 C9         -2.2194   11.8461    1.3744 C.ar      1 <0>        -0.1243
     18 C10        -2.6955   13.1424    1.3909 C.ar      1 <0>        -0.1145
     19 C11        -3.4397   13.5937    2.4655 C.ar      1 <0>        -0.1455
     20 C12        -3.7147   12.7475    3.5241 C.ar      1 <0>        -0.1102
     21 C13        -3.2468   11.4481    3.5110 C.ar      1 <0>        -0.1609
     22 N8         -2.7077    9.4654   -2.2220 N.pl3     1 <0>        -0.3636
     23 H1         -2.9389    1.2601    1.5867 H         1 <0>         0.0964
     24 H2         -3.4290    2.0374    0.0623 H         1 <0>         0.1074
     25 H3         -2.8846    0.3428    0.0623 H         1 <0>         0.0984
     26 H4         -0.2244   -0.1004    0.2205 H         1 <0>         0.2101
     27 H5          0.1193    5.6902    0.8071 H         1 <0>         0.1477
     28 H6         -0.1403    5.6103   -0.9520 H         1 <0>         0.1476
     29 H7         -1.7731    9.2412    3.2464 H         1 <0>         0.2599
     30 H8         -1.6345   11.4956    0.5369 H         1 <0>         0.1568
     31 H9         -2.4822   13.8059    0.5659 H         1 <0>         0.1305
     32 H10        -3.8067   14.6094    2.4782 H         1 <0>         0.1289
     33 H11        -4.2962   13.1030    4.3619 H         1 <0>         0.1313
     34 H12        -3.4619   10.7878    4.3381 H         1 <0>         0.1311
     35 H13        -3.1120   10.3469   -2.2047 H         1 <0>         0.2423
     36 H14        -2.6273    8.9851   -3.0609 H         1 <0>         0.2445
@<TRIPOS>BOND
     1    1    2 1
     2    1   23 1
     3    1   24 1
     4    1   25 1
     5    2    6 1
     6    2    3 1
     7    3    4 2
     8    3   26 1
     9    4    5 1
    10    5    6 2
    11    6    7 1
    12    7    8 1
    13    8    9 1
    14    8   27 1
    15    8   28 1
    16    9   14 ar
    17    9   10 ar
    18   10   11 ar
    19   11   12 ar
    20   11   22 1
    21   12   13 ar
    22   13   14 ar
    23   13   15 1
    24   15   16 1
    25   15   29 1
    26   16   21 ar
    27   16   17 ar
    28   17   18 ar
    29   17   30 1
    30   18   19 ar
    31   18   31 1
    32   19   20 ar
    33   19   32 1
    34   20   21 ar
    35   20   33 1
    36   21   34 1
    37   22   35 1
    38   22   36 1
@<TRIPOS>MOLECULE
ZINC00061263
   41    43     0     0     0
SMALL
USER_CHARGES

@<TRIPOS>ATOM
      1 C1          0.7631    6.3338    1.1974 C.3       1 <0>        -0.1572
      2 C2          0.8205    4.8337    1.0649 C.2       1 <0>         0.0329
      3 C3         -0.1013    4.0544    0.4295 C.2       1 <0>        -0.2203
      4 C4          0.3626    2.6643    0.5444 C.2       1 <0>         0.3439
      5 O1         -0.1898    1.6754    0.0988 O.2       1 <0>        -0.3348
      6 N1          1.5173    2.6957    1.2413 N.am      1 <0>        -0.1824
      7 N2          1.8026    4.0277    1.5595 N.pl3     1 <0>        -0.1906
      8 C5          2.9756    4.4858    2.3080 C.3       1 <0>        -0.0361
      9 C6          2.2985    1.5870    1.5821 C.ar      1 <0>         0.0704
     10 C7          3.6600    1.5842    1.3079 C.ar      1 <0>        -0.1437
     11 C8          4.4298    0.4902    1.6514 C.ar      1 <0>        -0.1184
     12 C9          3.8442   -0.6065    2.2570 C.ar      1 <0>        -0.1288
     13 C10         2.4877   -0.6094    2.5258 C.ar      1 <0>        -0.1138
     14 C11         1.7134    0.4840    2.1905 C.ar      1 <0>        -0.1126
     15 N3         -1.2382    4.4850   -0.1995 N.2       1 <0>        -0.0950
     16 C12        -2.1608    5.1096    0.4773 C.2       1 <0>        -0.0097
     17 C13        -2.3359    4.8323    1.9103 C.ar      1 <0>        -0.1480
     18 C14        -1.5844    3.8271    2.5283 C.ar      1 <0>        -0.0808
     19 C15        -1.7514    3.5713    3.8707 C.ar      1 <0>        -0.1697
     20 C16        -2.6648    4.3090    4.6159 C.ar      1 <0>         0.0976
     21 C17        -3.4152    5.3081    4.0131 C.ar      1 <0>        -0.1949
     22 C18        -3.2536    5.5788    2.6657 C.ar      1 <0>         0.1047
     23 O2         -3.9835    6.5596    2.0756 O.3       1 <0>        -0.2938
     24 O3         -2.8226    4.0506    5.9398 O.3       1 <0>        -0.2906
     25 H1          1.2723    6.7931    0.3500 H         1 <0>         0.1029
     26 H2         -0.2775    6.6575    1.2149 H         1 <0>         0.1116
     27 H3          1.2532    6.6358    2.1229 H         1 <0>         0.0826
     28 H4          3.7718    4.7478    1.6112 H         1 <0>         0.0800
     29 H5          2.7093    5.3608    2.9010 H         1 <0>         0.0963
     30 H6          3.3186    3.6898    2.9689 H         1 <0>         0.1018
     31 H7          4.1172    2.4386    0.8309 H         1 <0>         0.1372
     32 H8          5.4894    0.4892    1.4425 H         1 <0>         0.1346
     33 H9          4.4476   -1.4624    2.5209 H         1 <0>         0.1337
     34 H10         2.0334   -1.4674    2.9989 H         1 <0>         0.1388
     35 H11         0.6542    0.4813    2.4013 H         1 <0>         0.1519
     36 H12        -2.7965    5.8308   -0.0148 H         1 <0>         0.1715
     37 H13        -0.8741    3.2521    1.9528 H         1 <0>         0.1690
     38 H14        -1.1708    2.7950    4.3468 H         1 <0>         0.1437
     39 H15        -4.1228    5.8781    4.5969 H         1 <0>         0.1503
     40 H16        -4.8600    6.2753    1.7824 H         1 <0>         0.2356
     41 H17        -2.2377    4.5645    6.5133 H         1 <0>         0.2301
@<TRIPOS>BOND
     1    1    2 1
     2    1   25 1
     3    1   26 1
     4    1   27 1
     5    2    7 1
     6    2    3 2
     7    3    4 1
     8    3   15 1
     9    4    5 2
    10    4    6 am
    11    6    7 1
    12    6    9 1
    13    7    8 1
    14    8   28 1
    15    8   29 1
    16    8   30 1
    17    9   14 ar
    18    9   10 ar
    19   10   11 ar
    20   10   31 1
    21   11   12 ar
    22   11   32 1
    23   12   13 ar
    24   12   33 1
    25   13   14 ar
    26   13   34 1
    27   14   35 1
    28   15   16 2
    29   16   17 1
    30   16   36 1
    31   17   22 ar
    32   17   18 ar
    33   18   19 ar
    34   18   37 1
    35   19   20 ar
    36   19   38 1
    37   20   21 ar
    38   20   24 1
    39   21   22 ar
    40   21   39 1
    41   22   23 1
    42   23   40 1
    43   24   41 1
@<TRIPOS>MOLECULE
ZINC00063403
   42    44     0     0     0
SMALL
USER_CHARGES

@<TRIPOS>ATOM
      1 C1         -5.7577   10.8207   -0.7041 C.3       1 <0>        -0.2065
      2 C2         -5.0571    9.8426   -1.6115 C.2       1 <0>         0.2959
      3 O1         -3.9455    9.4553   -1.3391 O.2       1 <0>        -0.3289
      4 O2         -5.6682    9.4015   -2.7227 O.3       1 <0>        -0.2100
      5 C3         -4.9430    8.6036   -3.5504 C.ar      1 <0>         0.0802
      6 C4         -4.4415    9.1113   -4.7409 C.ar      1 <0>        -0.1474
      7 C5         -3.7046    8.3013   -5.5834 C.ar      1 <0>        -0.0985
      8 C6         -3.4648    6.9836   -5.2441 C.ar      1 <0>        -0.1660
      9 C7         -3.9646    6.4701   -4.0543 C.ar      1 <0>         0.0765
     10 C8         -4.7092    7.2809   -3.2090 C.ar      1 <0>        -0.1370
     11 N1         -3.7226    5.1353   -3.7110 N.am      1 <0>        -0.3222
     12 C9         -3.7186    4.7627   -2.4158 C.2       1 <0>         0.3103
     13 O3         -3.8195    5.5996   -1.5437 O.2       1 <0>        -0.3506
     14 C10        -3.5887    3.3063   -2.0511 C.3       1 <0>        -0.2097
     15 C11        -3.6115    3.1578   -0.5285 C.3       1 <0>         0.0540
     16 H1         -4.5095    3.6294   -0.1294 H         1 <0>         0.1477
     17 C12        -3.6054    1.6947   -0.1640 C.2       1 <0>         0.2951
     18 O4         -4.6571    1.1081   -0.0189 O.2       1 <0>        -0.3541
     19 N2         -2.4457    1.0331    0.0023 N.am      1 <0>        -0.3029
     20 C13        -1.2215    1.7109   -0.0251 C.ar      1 <0>         0.0053
     21 C14        -0.0262    1.0107   -0.0555 C.ar      1 <0>        -0.1376
     22 C15         1.1741    1.6967   -0.0864 C.ar      1 <0>        -0.1422
     23 C16         1.1889    3.0794   -0.0817 C.ar      1 <0>        -0.1159
     24 C17         0.0008    3.7872   -0.0413 C.ar      1 <0>        -0.1584
     25 C18        -1.2034    3.1064   -0.0058 C.ar      1 <0>         0.0707
     26 N3         -2.4207    3.7994    0.0584 N.pl3     1 <0>        -0.3798
     27 H2         -6.3293   10.2748    0.0465 H         1 <0>         0.1135
     28 H3         -5.0187   11.4515   -0.2101 H         1 <0>         0.1178
     29 H4         -6.4318   11.4434   -1.2923 H         1 <0>         0.1004
     30 H5         -4.6279   10.1407   -5.0092 H         1 <0>         0.1400
     31 H6         -3.3155    8.6988   -6.5092 H         1 <0>         0.1365
     32 H7         -2.8888    6.3524   -5.9046 H         1 <0>         0.1308
     33 H8         -5.1027    6.8828   -2.2854 H         1 <0>         0.1773
     34 H9         -3.5578    4.4782   -4.4053 H         1 <0>         0.2347
     35 H10        -2.6479    2.9169   -2.4401 H         1 <0>         0.1170
     36 H11        -4.4193    2.7481   -2.4831 H         1 <0>         0.1201
     37 H12        -2.4583    0.0736    0.1435 H         1 <0>         0.2442
     38 H13        -0.0321   -0.0692   -0.0596 H         1 <0>         0.1326
     39 H14         2.1049    1.1496   -0.1148 H         1 <0>         0.1325
     40 H15         2.1302    3.6082   -0.1093 H         1 <0>         0.1333
     41 H16         0.0132    4.8671   -0.0370 H         1 <0>         0.1435
     42 H17        -2.4743    4.6769    0.4684 H         1 <0>         0.2574
@<TRIPOS>BOND
     1    1    2 1
     2    1   27 1
     3    1   28 1
     4    1   29 1
     5    2    3 2
     6    2    4 1
     7    4    5 1
     8    5   10 ar
     9    5    6 ar
    10    6    7 ar
    11    6   30 1
    12    7    8 ar
    13    7   31 1
    14    8    9 ar
    15    8   32 1
    16    9   10 ar
    17    9   11 1
    18   10   33 1
    19   11   12 am
    20   11   34 1
    21   12   13 2
    22   12   14 1
    23   14   15 1
    24   14   35 1
    25   14   36 1
    26   15   16 1
    27   15   26 1
    28   15   17 1
    29   17   18 2
    30   17   19 am
    31   19   20 1
    32   19   37 1
    33   20   25 ar
    34   20   21 ar
    35   21   22 ar
    36   21   38 1
    37   22   23 ar
    38   22   39 1
    39   23   24 ar
    40   23   40 1
    41   24   25 ar
    42   24   41 1
    43   25   26 1
    44   26   42 1
@<TRIPOS>MOLECULE
ZINC00063405
   42    44     0     0     0
SMALL
USER_CHARGES

@<TRIPOS>ATOM
      1 C1          4.2405   -0.3445   -3.8661 C.3       1 <0>        -0.2068
      2 C2          3.1783    0.1561   -2.9215 C.2       1 <0>         0.2995
      3 O1          2.2271    0.7653   -3.3502 O.2       1 <0>        -0.3411
      4 O2          3.2891   -0.0751   -1.6035 O.3       1 <0>        -0.2054
      5 C3          2.2471    0.3095   -0.8199 C.ar      1 <0>         0.0777
      6 C4          2.3502    1.4526   -0.0393 C.ar      1 <0>        -0.1404
      7 C5          1.2919    1.8448    0.7577 C.ar      1 <0>        -0.1015
      8 C6          0.1283    1.1002    0.7811 C.ar      1 <0>        -0.1594
      9 C7          0.0199   -0.0450    0.0028 C.ar      1 <0>         0.0717
     10 C8          1.0818   -0.4402   -0.7988 C.ar      1 <0>        -0.1290
     11 N1         -1.1585   -0.7991    0.0265 N.am      1 <0>        -0.3243
     12 C9         -1.1010   -2.1423   -0.0676 C.2       1 <0>         0.3142
     13 O3         -0.0363   -2.6921   -0.2553 O.2       1 <0>        -0.3625
     14 C10        -2.3596   -2.9613    0.0603 C.3       1 <0>        -0.2092
     15 C11        -2.0189   -4.4459   -0.0834 C.3       1 <0>         0.0538
     16 H1         -1.4885   -4.6093   -1.0215 H         1 <0>         0.1481
     17 C12        -3.2890   -5.2583   -0.0738 C.2       1 <0>         0.2949
     18 O4         -3.8486   -5.5092   -1.1203 O.2       1 <0>        -0.3526
     19 N2         -3.8082   -5.7082    1.0830 N.am      1 <0>        -0.3032
     20 C13        -3.1175   -5.5507    2.2901 C.ar      1 <0>         0.0071
     21 C14        -3.7312   -5.8388    3.4984 C.ar      1 <0>        -0.1375
     22 C15        -3.0354   -5.6731    4.6819 C.ar      1 <0>        -0.1412
     23 C16        -1.7268   -5.2264    4.6663 C.ar      1 <0>        -0.1164
     24 C17        -1.1016   -4.9481    3.4638 C.ar      1 <0>        -0.1585
     25 C18        -1.7912   -5.1163    2.2760 C.ar      1 <0>         0.0703
     26 N3         -1.1707   -4.8671    1.0412 N.pl3     1 <0>        -0.3804
     27 H2          5.0127   -0.8665   -3.3009 H         1 <0>         0.1008
     28 H3          3.7927   -1.0286   -4.5869 H         1 <0>         0.1177
     29 H4          4.6845    0.4996   -4.3938 H         1 <0>         0.1158
     30 H5          3.2588    2.0363   -0.0550 H         1 <0>         0.1411
     31 H6          1.3745    2.7348    1.3639 H         1 <0>         0.1371
     32 H7         -0.6974    1.4087    1.4053 H         1 <0>         0.1319
     33 H8          1.0017   -1.3328   -1.4016 H         1 <0>         0.1725
     34 H9         -2.0168   -0.3551    0.1106 H         1 <0>         0.2360
     35 H10        -2.8102   -2.7848    1.0370 H         1 <0>         0.1181
     36 H11        -3.0621   -2.6724   -0.7214 H         1 <0>         0.1197
     37 H12        -4.6731   -6.1474    1.0804 H         1 <0>         0.2445
     38 H13        -4.7515   -6.1927    3.5160 H         1 <0>         0.1332
     39 H14        -3.5165   -5.8939    5.6233 H         1 <0>         0.1329
     40 H15        -1.1916   -5.0941    5.5950 H         1 <0>         0.1332
     41 H16        -0.0789   -4.6011    3.4523 H         1 <0>         0.1416
     42 H17        -0.2124   -4.9706    0.9321 H         1 <0>         0.2559
@<TRIPOS>BOND
     1    1    2 1
     2    1   27 1
     3    1   28 1
     4    1   29 1
     5    2    3 2
     6    2    4 1
     7    4    5 1
     8    5   10 ar
     9    5    6 ar
    10    6    7 ar
    11    6   30 1
    12    7    8 ar
    13    7   31 1
    14    8    9 ar
    15    8   32 1
    16    9   10 ar
    17    9   11 1
    18   10   33 1
    19   11   12 am
    20   11   34 1
    21   12   13 2
    22   12   14 1
    23   14   15 1
    24   14   35 1
    25   14   36 1
    26   15   16 1
    27   15   26 1
    28   15   17 1
    29   17   18 2
    30   17   19 am
    31   19   20 1
    32   19   37 1
    33   20   25 ar
    34   20   21 ar
    35   21   22 ar
    36   21   38 1
    37   22   23 ar
    38   22   39 1
    39   23   24 ar
    40   23   40 1
    41   24   25 ar
    42   24   41 1
    43   25   26 1
    44   26   42 1
@<TRIPOS>MOLECULE
ZINC00063411
   41    43     0     0     0
SMALL
USER_CHARGES

@<TRIPOS>ATOM
      1 C1         -4.3718   10.6593   -4.6978 C.3       1 <0>        -0.1905
      2 C2         -4.2841    9.1633   -4.5393 C.ar      1 <0>        -0.0236
      3 C3         -4.6932    8.5693   -3.3592 C.ar      1 <0>        -0.1220
      4 C4         -4.6195    7.1981   -3.2129 C.ar      1 <0>        -0.0826
      5 C5         -4.1235    6.4164   -4.2483 C.ar      1 <0>         0.0526
      6 C6         -3.7135    7.0159   -5.4318 C.ar      1 <0>        -0.1037
      7 C7         -3.7952    8.3874   -5.5740 C.ar      1 <0>        -0.0987
      8 N1         -3.3583    9.0272   -6.8352 N.pl3     1 <0>         0.5510
      9 O1         -2.8119    8.3630   -7.6976 O.2       1 <0>        -0.3585
     10 O2         -3.5453   10.2180   -7.0106 O.3       1 <0>        -0.3572
     11 N2         -4.0425    5.0273   -4.1013 N.am      1 <0>        -0.3254
     12 C8         -3.7662    4.4922   -2.8955 C.2       1 <0>         0.3154
     13 O3         -3.4954    5.2142   -1.9593 O.2       1 <0>        -0.3599
     14 C9         -3.7937    2.9969   -2.7106 C.3       1 <0>        -0.2082
     15 C10        -3.4463    2.6560   -1.2600 C.3       1 <0>         0.0537
     16 H1         -4.1176    3.1914   -0.5887 H         1 <0>         0.1470
     17 C11        -3.5927    1.1712   -1.0417 C.2       1 <0>         0.2953
     18 O4         -4.6543    0.7221   -0.6641 O.2       1 <0>        -0.3519
     19 N3         -2.5582    0.3394   -1.2608 N.am      1 <0>        -0.3021
     20 C12        -1.2866    0.8388   -1.5653 C.ar      1 <0>         0.0062
     21 C13        -0.2757   -0.0101   -1.9861 C.ar      1 <0>        -0.1362
     22 C14         0.9735    0.5011   -2.2866 C.ar      1 <0>        -0.1396
     23 C15         1.2219    1.8560   -2.1644 C.ar      1 <0>        -0.1148
     24 C16         0.2216    2.7101   -1.7355 C.ar      1 <0>        -0.1587
     25 C17        -1.0293    2.2039   -1.4290 C.ar      1 <0>         0.0682
     26 N4         -2.0537    3.0445   -0.9705 N.pl3     1 <0>        -0.3816
     27 H2         -5.2908   10.9156   -5.2249 H         1 <0>         0.1058
     28 H3         -4.3738   11.1294   -3.7144 H         1 <0>         0.0810
     29 H4         -3.5142   11.0151   -5.2688 H         1 <0>         0.1256
     30 H5         -5.0750    9.1780   -2.5530 H         1 <0>         0.1528
     31 H6         -4.9433    6.7344   -2.2928 H         1 <0>         0.1690
     32 H7         -3.3315    6.4103   -6.2404 H         1 <0>         0.1643
     33 H8         -4.1852    4.4494   -4.8672 H         1 <0>         0.2399
     34 H9         -3.0652    2.5349   -3.3768 H         1 <0>         0.1203
     35 H10        -4.7895    2.6202   -2.9439 H         1 <0>         0.1225
     36 H11        -2.6953   -0.6193   -1.2067 H         1 <0>         0.2457
     37 H12        -0.4643   -1.0691   -2.0834 H         1 <0>         0.1341
     38 H13         1.7593   -0.1612   -2.6189 H         1 <0>         0.1344
     39 H14         2.1991    2.2483   -2.4041 H         1 <0>         0.1346
     40 H15         0.4164    3.7680   -1.6398 H         1 <0>         0.1411
     41 H16        -1.8507    3.8600   -0.4861 H         1 <0>         0.2551
@<TRIPOS>BOND
     1    1    2 1
     2    1   27 1
     3    1   28 1
     4    1   29 1
     5    2    7 ar
     6    2    3 ar
     7    3    4 ar
     8    3   30 1
     9    4    5 ar
    10    4   31 1
    11    5    6 ar
    12    5   11 1
    13    6    7 ar
    14    6   32 1
    15    7    8 1
    16    8    9 2
    17    8   10 1
    18   11   12 am
    19   11   33 1
    20   12   13 2
    21   12   14 1
    22   14   15 1
    23   14   34 1
    24   14   35 1
    25   15   16 1
    26   15   26 1
    27   15   17 1
    28   17   18 2
    29   17   19 am
    30   19   20 1
    31   19   36 1
    32   20   25 ar
    33   20   21 ar
    34   21   22 ar
    35   21   37 1
    36   22   23 ar
    37   22   38 1
    38   23   24 ar
    39   23   39 1
    40   24   25 ar
    41   24   40 1
    42   25   26 1
    43   26   41 1
@<TRIPOS>MOLECULE
ZINC00063412
   41    43     0     0     0
SMALL
USER_CHARGES

@<TRIPOS>ATOM
      1 C1          0.4494    1.6088    0.0797 C.3       1 <0>        -0.1827
      2 C2          0.2067    0.1217    0.1048 C.ar      1 <0>        -0.0328
      3 C3          0.9328   -0.6816    0.9651 C.ar      1 <0>        -0.1169
      4 C4          0.7088   -2.0439    0.9945 C.ar      1 <0>        -0.1224
      5 C5         -0.2386   -2.6087    0.1504 C.ar      1 <0>         0.0537
      6 C6         -0.9620   -1.8002   -0.7162 C.ar      1 <0>        -0.0749
      7 C7         -0.7375   -0.4374   -0.7364 C.ar      1 <0>        -0.0897
      8 N1         -1.5081    0.4252   -1.6599 N.pl3     1 <0>         0.5467
      9 O1         -1.8657    1.5333   -1.3025 O.2       1 <0>        -0.3575
     10 O2         -1.7846    0.0269   -2.7772 O.3       1 <0>        -0.3410
     11 N2         -0.4640   -3.9895    0.1737 N.am      1 <0>        -0.3264
     12 C8         -0.7773   -4.6404   -0.9641 C.2       1 <0>         0.3126
     13 O3         -0.9460   -4.0186   -1.9917 O.2       1 <0>        -0.3523
     14 C9         -0.9180   -6.1408   -0.9596 C.3       1 <0>        -0.2079
     15 C10        -1.2751   -6.6238   -2.3667 C.3       1 <0>         0.0535
     16 H1         -2.1685   -6.1053   -2.7146 H         1 <0>         0.1498
     17 C11        -1.5320   -8.1093   -2.3403 C.2       1 <0>         0.2949
     18 O4         -2.6572   -8.5203   -2.1498 O.2       1 <0>        -0.3509
     19 N3         -0.5266   -8.9839   -2.5260 N.am      1 <0>        -0.3027
     20 C12         0.7535   -8.5427   -2.8801 C.ar      1 <0>         0.0069
     21 C13         1.8272   -9.4186   -2.8839 C.ar      1 <0>        -0.1371
     22 C14         3.0861   -8.9645   -3.2319 C.ar      1 <0>        -0.1403
     23 C15         3.2792   -7.6408   -3.5824 C.ar      1 <0>        -0.1162
     24 C16         2.2108   -6.7617   -3.5937 C.ar      1 <0>        -0.1583
     25 C17         0.9478   -7.2112   -3.2508 C.ar      1 <0>         0.0688
     26 N4         -0.1576   -6.3457   -3.2807 N.pl3     1 <0>        -0.3809
     27 H2         -0.2945    2.1089    0.7000 H         1 <0>         0.1116
     28 H3          1.4464    1.8208    0.4660 H         1 <0>         0.0833
     29 H4          0.3719    1.9724   -0.9449 H         1 <0>         0.1033
     30 H5          1.6728   -0.2424    1.6178 H         1 <0>         0.1493
     31 H6          1.2730   -2.6701    1.6697 H         1 <0>         0.1407
     32 H7         -1.6991   -2.2364   -1.3740 H         1 <0>         0.1922
     33 H8         -0.3947   -4.4782    1.0087 H         1 <0>         0.2388
     34 H9          0.0235   -6.5931   -0.6482 H         1 <0>         0.1193
     35 H10        -1.7070   -6.4296   -0.2652 H         1 <0>         0.1204
     36 H11        -0.6912   -9.9331   -2.4127 H         1 <0>         0.2453
     37 H12         1.6809  -10.4545   -2.6157 H         1 <0>         0.1338
     38 H13         3.9228   -9.6473   -3.2302 H         1 <0>         0.1336
     39 H14         4.2664   -7.2923   -3.8478 H         1 <0>         0.1338
     40 H15         2.3620   -5.7285   -3.8694 H         1 <0>         0.1418
     41 H16        -0.1847   -5.5884   -3.8862 H         1 <0>         0.2573
@<TRIPOS>BOND
     1    1    2 1
     2    1   27 1
     3    1   28 1
     4    1   29 1
     5    2    7 ar
     6    2    3 ar
     7    3    4 ar
     8    3   30 1
     9    4    5 ar
    10    4   31 1
    11    5    6 ar
    12    5   11 1
    13    6    7 ar
    14    6   32 1
    15    7    8 1
    16    8    9 2
    17    8   10 1
    18   11   12 am
    19   11   33 1
    20   12   13 2
    21   12   14 1
    22   14   15 1
    23   14   34 1
    24   14   35 1
    25   15   16 1
    26   15   26 1
    27   15   17 1
    28   17   18 2
    29   17   19 am
    30   19   20 1
    31   19   36 1
    32   20   25 ar
    33   20   21 ar
    34   21   22 ar
    35   21   37 1
    36   22   23 ar
    37   22   38 1
    38   23   24 ar
    39   23   39 1
    40   24   25 ar
    41   24   40 1
    42   25   26 1
    43   26   41 1
@<TRIPOS>MOLECULE
ZINC00067891
   38    39     0     0     0
SMALL
USER_CHARGES

@<TRIPOS>ATOM
      1 C1         -6.0811    1.6880   -0.3588 C.3       1 <0>        -0.1750
      2 C2         -4.7468    0.9942   -0.2630 C.ar      1 <0>        -0.0840
      3 C3         -3.5866    1.7377   -0.1783 C.ar      1 <0>        -0.1534
      4 C4         -2.3571    1.0984   -0.0905 C.ar      1 <0>         0.0584
      5 C5         -2.2939   -0.2891   -0.0934 C.ar      1 <0>        -0.1241
      6 C6         -3.4540   -1.0326   -0.1727 C.ar      1 <0>        -0.1009
      7 C7         -4.6841   -0.3931   -0.2605 C.ar      1 <0>         0.0326
      8 N1         -5.8604   -1.1472   -0.3469 N.am      1 <0>        -0.3157
      9 C8         -5.9598   -2.3188    0.3118 C.2       1 <0>         0.3397
     10 O1         -4.9998   -2.7622    0.9117 O.2       1 <0>        -0.3388
     11 C9         -7.2360   -3.0646    0.3051 C.ar      1 <0>        -0.0858
     12 C10        -8.3418   -2.5554   -0.3778 C.ar      1 <0>        -0.1163
     13 C11        -9.5284   -3.2591   -0.3846 C.ar      1 <0>        -0.0787
     14 C12        -9.6271   -4.4613    0.2931 C.ar      1 <0>        -0.0911
     15 C13        -8.5364   -4.9690    0.9764 C.ar      1 <0>        -0.0788
     16 C14        -7.3423   -4.2783    0.9863 C.ar      1 <0>        -0.0744
     17 N2        -10.9052   -5.2079    0.2867 N.pl3     1 <0>         0.5452
     18 O2        -10.9950   -6.2667    0.8821 O.2       1 <0>        -0.3477
     19 O3        -11.8672   -4.7635   -0.3139 O.3       1 <0>        -0.3516
     20 N3         -1.1800    1.8529   -0.0050 N.am      1 <0>        -0.3268
     21 C15        -0.0866    1.3312    0.5855 C.2       1 <0>         0.2997
     22 O4         -0.1511    0.2521    1.1357 O.2       1 <0>        -0.3487
     23 C16         1.2176    2.0857    0.5570 C.3       1 <0>        -0.2415
     24 H1         -6.3287    1.8564   -1.4068 H         1 <0>         0.0814
     25 H2         -6.8485    1.0646    0.1002 H         1 <0>         0.0775
     26 H3         -6.0313    2.6447    0.1611 H         1 <0>         0.0898
     27 H4         -3.6353    2.8166   -0.1806 H         1 <0>         0.1316
     28 H5         -1.3373   -0.7862   -0.0296 H         1 <0>         0.1748
     29 H6         -3.4052   -2.1114   -0.1708 H         1 <0>         0.1689
     30 H7         -6.6040   -0.8264   -0.8809 H         1 <0>         0.2326
     31 H8         -8.2675   -1.6147   -0.9032 H         1 <0>         0.1412
     32 H9        -10.3834   -2.8687   -0.9165 H         1 <0>         0.1686
     33 H10        -8.6201   -5.9080    1.5034 H         1 <0>         0.1726
     34 H11        -6.4915   -4.6758    1.5197 H         1 <0>         0.1757
     35 H12        -1.1518    2.7509   -0.3708 H         1 <0>         0.2309
     36 H13         1.9825    1.5090    1.0771 H         1 <0>         0.1203
     37 H14         1.5229    2.2446   -0.4772 H         1 <0>         0.0963
     38 H15         1.0908    3.0493    1.0505 H         1 <0>         0.0954
@<TRIPOS>BOND
     1    1    2 1
     2    1   24 1
     3    1   25 1
     4    1   26 1
     5    2    7 ar
     6    2    3 ar
     7    3    4 ar
     8    3   27 1
     9    4    5 ar
    10    4   20 1
    11    5    6 ar
    12    5   28 1
    13    6    7 ar
    14    6   29 1
    15    7    8 1
    16    8    9 am
    17    8   30 1
    18    9   10 2
    19    9   11 1
    20   11   16 ar
    21   11   12 ar
    22   12   13 ar
    23   12   31 1
    24   13   14 ar
    25   13   32 1
    26   14   15 ar
    27   14   17 1
    28   15   16 ar
    29   15   33 1
    30   16   34 1
    31   17   18 2
    32   17   19 1
    33   20   21 am
    34   20   35 1
    35   21   22 2
    36   21   23 1
    37   23   36 1
    38   23   37 1
    39   23   38 1
@<TRIPOS>MOLECULE
ZINC00067894
   41    42     0     0     0
SMALL
USER_CHARGES

@<TRIPOS>ATOM
      1 C1          3.3313    5.2446    2.1260 C.3       1 <0>        -0.1829
      2 C2          3.0812    3.9306    1.4318 C.ar      1 <0>        -0.0379
      3 C3          4.1141    3.2934    0.7670 C.ar      1 <0>        -0.1225
      4 C4          3.8928    2.0874    0.1264 C.ar      1 <0>        -0.0685
      5 C5          2.6391    1.5117    0.1470 C.ar      1 <0>        -0.0798
      6 C6          1.5930    2.1488    0.8162 C.ar      1 <0>        -0.0599
      7 C7          1.8219    3.3683    1.4560 C.ar      1 <0>        -0.1154
      8 C8          0.2472    1.5380    0.8420 C.2       1 <0>         0.3404
      9 O1          0.1023    0.4036    1.2543 O.2       1 <0>        -0.3112
     10 N1         -0.8185    2.2368    0.4032 N.am      1 <0>        -0.3141
     11 C9         -2.1040    1.6927    0.5088 C.ar      1 <0>         0.0393
     12 C10        -2.2941    0.3251    0.3564 C.ar      1 <0>        -0.0995
     13 C11        -3.5615   -0.2113    0.4605 C.ar      1 <0>        -0.1500
     14 C12        -4.6470    0.6163    0.7175 C.ar      1 <0>         0.0523
     15 C13        -4.4572    1.9834    0.8693 C.ar      1 <0>        -0.1133
     16 C14        -3.1886    2.5193    0.7714 C.ar      1 <0>        -0.0900
     17 C15        -2.9817    4.0022    0.9427 C.3       1 <0>        -0.1722
     18 N2         -5.9332    0.0719    0.8230 N.am      1 <0>        -0.3281
     19 C16        -6.9990    0.7711    0.3852 C.2       1 <0>         0.2997
     20 O2         -6.8371    1.8261   -0.1910 O.2       1 <0>        -0.3574
     21 C17        -8.3919    0.2422    0.6115 C.3       1 <0>        -0.2369
     22 N3          2.4040    0.2215   -0.5393 N.pl3     1 <0>         0.5469
     23 O3          3.3389   -0.3883   -1.0266 O.2       1 <0>        -0.3591
     24 O4          1.2755   -0.2304   -0.6167 O.3       1 <0>        -0.3249
     25 H1          3.1464    6.0637    1.4310 H         1 <0>         0.0970
     26 H2          2.6627    5.3364    2.9819 H         1 <0>         0.0925
     27 H3          4.3658    5.2842    2.4671 H         1 <0>         0.0930
     28 H4          5.0974    3.7399    0.7478 H         1 <0>         0.1501
     29 H5          4.7031    1.5957   -0.3913 H         1 <0>         0.1702
     30 H6          1.0156    3.8686    1.9718 H         1 <0>         0.1522
     31 H7         -0.6947    3.1168    0.0143 H         1 <0>         0.2332
     32 H8         -1.4500   -0.3185    0.1570 H         1 <0>         0.1797
     33 H9         -3.7092   -1.2746    0.3424 H         1 <0>         0.1353
     34 H10        -5.3013    2.6269    1.0687 H         1 <0>         0.1594
     35 H11        -3.0723    4.4959   -0.0248 H         1 <0>         0.0867
     36 H12        -3.7347    4.3977    1.6244 H         1 <0>         0.0897
     37 H13        -1.9884    4.1855    1.3526 H         1 <0>         0.0689
     38 H14        -6.0569   -0.8084    1.2112 H         1 <0>         0.2324
     39 H15        -8.3377   -0.7092    1.1406 H         1 <0>         0.0783
     40 H16        -8.9598    0.9572    1.2067 H         1 <0>         0.1126
     41 H17        -8.8855    0.0960   -0.3493 H         1 <0>         0.1137
@<TRIPOS>BOND
     1    1    2 1
     2    1   25 1
     3    1   26 1
     4    1   27 1
     5    2    7 ar
     6    2    3 ar
     7    3    4 ar
     8    3   28 1
     9    4    5 ar
    10    4   29 1
    11    5    6 ar
    12    5   22 1
    13    6    7 ar
    14    6    8 1
    15    7   30 1
    16    8    9 2
    17    8   10 am
    18   10   11 1
    19   10   31 1
    20   11   16 ar
    21   11   12 ar
    22   12   13 ar
    23   12   32 1
    24   13   14 ar
    25   13   33 1
    26   14   15 ar
    27   14   18 1
    28   15   16 ar
    29   15   34 1
    30   16   17 1
    31   17   35 1
    32   17   36 1
    33   17   37 1
    34   18   19 am
    35   18   38 1
    36   19   20 2
    37   19   21 1
    38   21   39 1
    39   21   40 1
    40   21   41 1
    41   22   23 2
    42   22   24 1
@<TRIPOS>MOLECULE
ZINC00071925
   38    40     0     0     0
SMALL
USER_CHARGES

@<TRIPOS>ATOM
      1 C1         -0.0301   -2.7047   -0.0122 C.3       1 <0>        -0.0653
      2 O1          1.2323   -2.0353   -0.0206 O.3       1 <0>        -0.1979
      3 C2          1.2102   -0.6755   -0.0131 C.ar      1 <0>         0.0662
      4 C3          0.0021   -0.0041    0.0020 C.ar      1 <0>        -0.1930
      5 C4         -0.0169    1.3931    0.0097 C.ar      1 <0>        -0.0242
      6 C5          1.1857    2.1046    0.0020 C.ar      1 <0>        -0.1096
      7 C6          2.3869    1.4278   -0.0131 C.ar      1 <0>        -0.1271
      8 C7          2.4053    0.0406   -0.0202 C.ar      1 <0>         0.0599
      9 O2          3.5924   -0.6217   -0.0347 O.3       1 <0>        -0.2760
     10 C8         -1.3023    2.1146    0.0197 C.2       1 <0>        -0.1062
     11 N1         -1.3180    3.4127    0.0268 N.2       1 <0>         0.0142
     12 N2         -2.5397    4.0984    0.0363 N.am      1 <0>        -0.3336
     13 C9         -2.5560    5.4460    0.0437 C.2       1 <0>         0.3913
     14 O3         -1.5098    6.0671    0.0422 O.2       1 <0>        -0.2957
     15 C10        -3.8391    6.1662    0.0537 C.2       1 <0>        -0.1680
     16 C11        -4.0182    7.5362    0.0620 C.2       1 <0>        -0.1344
     17 C12        -5.4138    7.7284    0.0691 C.2       1 <0>        -0.0426
     18 N3         -5.9783    6.5373    0.0651 N.2       1 <0>        -0.0590
     19 N4         -5.0884    5.6115    0.0506 N.pl3     1 <0>        -0.1090
     20 H1         -5.2809    4.6303    0.0388 H         1 <0>         0.2828
     21 C13        -6.1172    9.0294    0.0793 C.2       1 <0>         0.0177
     22 C14        -7.4644    9.2073    0.0807 C.2       1 <0>        -0.1793
     23 C15        -7.6902   10.5989    0.0951 C.2       1 <0>        -0.2226
     24 C16        -6.4821   11.1945    0.0925 C.2       1 <0>        -0.0905
     25 O4         -5.5338   10.2431    0.0830 O.3       1 <0>        -0.0488
     26 H2         -0.6003   -2.4161   -0.8952 H         1 <0>         0.0645
     27 H3          0.1302   -3.7828   -0.0195 H         1 <0>         0.1122
     28 H4         -0.5833   -2.4257    0.8846 H         1 <0>         0.0684
     29 H5         -0.9250   -0.5580    0.0083 H         1 <0>         0.1376
     30 H6          1.1743    3.1846    0.0076 H         1 <0>         0.1640
     31 H7          3.3157    1.9788   -0.0190 H         1 <0>         0.1512
     32 H8          3.9277   -0.8085   -0.9222 H         1 <0>         0.2280
     33 H9         -2.2310    1.5633    0.0211 H         1 <0>         0.1140
     34 H10        -3.3738    3.6032    0.0376 H         1 <0>         0.1965
     35 H11        -3.2519    8.2973    0.0629 H         1 <0>         0.1902
     36 H12        -8.2167    8.4325    0.0746 H         1 <0>         0.1663
     37 H13        -8.6502   11.0937    0.1026 H         1 <0>         0.1573
     38 H14        -6.3052   12.2599    0.0976 H         1 <0>         0.2003
@<TRIPOS>BOND
     1    1    2 1
     2    1   26 1
     3    1   27 1
     4    1   28 1
     5    2    3 1
     6    3    8 ar
     7    3    4 ar
     8    4    5 ar
     9    4   29 1
    10    5    6 ar
    11    5   10 1
    12    6    7 ar
    13    6   30 1
    14    7    8 ar
    15    7   31 1
    16    8    9 1
    17    9   32 1
    18   10   11 2
    19   10   33 1
    20   11   12 1
    21   12   13 am
    22   12   34 1
    23   13   14 2
    24   13   15 1
    25   15   19 1
    26   15   16 2
    27   16   17 1
    28   16   35 1
    29   17   18 2
    30   17   21 1
    31   18   19 1
    32   19   20 1
    33   21   25 1
    34   21   22 2
    35   22   23 1
    36   22   36 1
    37   23   24 2
    38   23   37 1
    39   24   25 1
    40   24   38 1
@<TRIPOS>MOLECULE
ZINC00073386
   41    43     0     0     0
SMALL
USER_CHARGES

@<TRIPOS>ATOM
      1 C1         -0.0127    1.0858    0.0080 C.3       1 <0>        -0.1340
      2 C2         -0.7181    1.5718    1.2479 C.2       1 <0>        -0.0396
      3 C3         -0.9156    2.8609    1.5848 C.2       1 <0>        -0.2228
      4 C4         -1.6128    2.8650    2.8102 C.2       1 <0>        -0.1747
      5 C5         -1.7969    1.5650    3.1603 C.2       1 <0>         0.0136
      6 O1         -1.2492    0.7914    2.2037 O.3       1 <0>        -0.0481
      7 C6         -2.4802    1.0832    4.3804 C.2       1 <0>        -0.0403
      8 C7         -2.6751   -0.2623    4.7495 C.2       1 <0>        -0.1351
      9 C8         -3.3533   -0.2155    5.9524 C.2       1 <0>        -0.1686
     10 N1         -3.5317    1.1075    6.2461 N.pl3     1 <0>        -0.1095
     11 H1         -3.9973    1.4574    7.0590 H         1 <0>         0.2824
     12 N2         -3.0128    1.8345    5.3234 N.2       1 <0>        -0.0600
     13 C9         -3.7958   -1.3639    6.7589 C.2       1 <0>         0.3914
     14 O2         -3.5698   -2.4974    6.3788 O.2       1 <0>        -0.2962
     15 N3         -4.4514   -1.1601    7.9187 N.am      1 <0>        -0.3337
     16 N4         -4.8727   -2.2535    8.6867 N.2       1 <0>         0.0143
     17 C10        -5.5042   -2.0573    9.8038 C.2       1 <0>        -0.1065
     18 C11        -5.9474   -3.2078   10.6118 C.ar      1 <0>        -0.0239
     19 C12        -5.6939   -4.5103   10.1742 C.ar      1 <0>        -0.1098
     20 C13        -6.1039   -5.5850   10.9347 C.ar      1 <0>        -0.1270
     21 C14        -6.7789   -5.3768   12.1288 C.ar      1 <0>         0.0597
     22 C15        -7.0406   -4.0810   12.5683 C.ar      1 <0>         0.0662
     23 C16        -6.6273   -2.9985   11.8146 C.ar      1 <0>        -0.1931
     24 O3         -7.7025   -3.8810   13.7394 O.3       1 <0>        -0.1980
     25 C17        -7.9364   -2.5262   14.1292 C.3       1 <0>        -0.0653
     26 O4         -7.1862   -6.4400   12.8715 O.3       1 <0>        -0.2761
     27 H2          0.0021   -0.0041    0.0020 H         1 <0>         0.0936
     28 H3          1.0099    1.4631    0.0003 H         1 <0>         0.0966
     29 H4         -0.5399    1.4469   -0.8751 H         1 <0>         0.0965
     30 H5         -0.6015    3.7273    1.0217 H         1 <0>         0.1567
     31 H6         -1.9349    3.7336    3.3654 H         1 <0>         0.1650
     32 H7         -2.3609   -1.1425    4.2082 H         1 <0>         0.1898
     33 H8         -4.6315   -0.2564    8.2217 H         1 <0>         0.1965
     34 H9         -5.7047   -1.0511   10.1412 H         1 <0>         0.1140
     35 H10        -5.1726   -4.6752    9.2428 H         1 <0>         0.1640
     36 H11        -5.9034   -6.5912   10.5975 H         1 <0>         0.1511
     37 H12        -6.8290   -1.9935   12.1546 H         1 <0>         0.1376
     38 H13        -8.5334   -2.0265   13.3663 H         1 <0>         0.0646
     39 H14        -8.4715   -2.5086   15.0787 H         1 <0>         0.1122
     40 H15        -6.9827   -2.0103   14.2401 H         1 <0>         0.0684
     41 H16        -8.0736   -6.7558   12.6526 H         1 <0>         0.2280
@<TRIPOS>BOND
     1    1    2 1
     2    1   27 1
     3    1   28 1
     4    1   29 1
     5    2    6 1
     6    2    3 2
     7    3    4 1
     8    3   30 1
     9    4    5 2
    10    4   31 1
    11    5    6 1
    12    5    7 1
    13    7   12 2
    14    7    8 1
    15    8    9 2
    16    8   32 1
    17    9   10 1
    18    9   13 1
    19   10   11 1
    20   10   12 1
    21   13   14 2
    22   13   15 am
    23   15   16 1
    24   15   33 1
    25   16   17 2
    26   17   18 1
    27   17   34 1
    28   18   23 ar
    29   18   19 ar
    30   19   20 ar
    31   19   35 1
    32   20   21 ar
    33   20   36 1
    34   21   22 ar
    35   21   26 1
    36   22   23 ar
    37   22   24 1
    38   23   37 1
    39   24   25 1
    40   25   38 1
    41   25   39 1
    42   25   40 1
    43   26   41 1
@<TRIPOS>MOLECULE
ZINC00073386
   41    43     0     0     0
SMALL
USER_CHARGES

@<TRIPOS>ATOM
      1 C1          0.0272    1.0865    0.0307 C.3       1 <0>        -0.1355
      2 C2         -0.6855    1.5723    1.2665 C.2       1 <0>        -0.0331
      3 C3         -0.8833    2.8614    1.6033 C.2       1 <0>        -0.2149
      4 C4         -1.5884    2.8654    2.8242 C.2       1 <0>        -0.2064
      5 C5         -1.7765    1.5653    3.1720 C.2       1 <0>         0.0057
      6 O1         -1.2238    0.7918    2.2182 O.3       1 <0>        -0.0353
      7 C6         -2.4683    1.0834    4.3872 C.2       1 <0>        -0.0598
      8 C7         -2.6675   -0.2622    4.7538 C.2       1 <0>        -0.1481
      9 C8         -3.3533   -0.2155    5.9524 C.2       1 <0>        -0.1544
     10 N1         -3.5398    1.1074    6.2415 N.2       1 <0>        -0.1142
     11 H1         -3.0269    2.8344    5.3127 H         1 <0>         0.2885
     12 N2         -3.0178    1.8345    5.3206 N.pl3     1 <0>        -0.0408
     13 C9         -3.7958   -1.3639    6.7589 C.2       1 <0>         0.4091
     14 O2         -3.5698   -2.4974    6.3788 O.2       1 <0>        -0.3145
     15 N3         -4.4514   -1.1601    7.9187 N.am      1 <0>        -0.3202
     16 N4         -4.8727   -2.2535    8.6867 N.2       1 <0>         0.0102
     17 C10        -5.5042   -2.0573    9.8038 C.2       1 <0>        -0.1142
     18 C11        -5.9474   -3.2078   10.6118 C.ar      1 <0>        -0.0180
     19 C12        -5.6939   -4.5103   10.1742 C.ar      1 <0>        -0.1125
     20 C13        -6.1039   -5.5850   10.9347 C.ar      1 <0>        -0.1271
     21 C14        -6.7789   -5.3768   12.1288 C.ar      1 <0>         0.0552
     22 C15        -7.0406   -4.0810   12.5683 C.ar      1 <0>         0.0656
     23 C16        -6.6273   -2.9985   11.8146 C.ar      1 <0>        -0.1948
     24 O3         -7.7025   -3.8810   13.7394 O.3       1 <0>        -0.1994
     25 C17        -7.9364   -2.5262   14.1292 C.3       1 <0>        -0.0652
     26 O4         -7.1862   -6.4400   12.8715 O.3       1 <0>        -0.2769
     27 H2          0.0405   -0.0035    0.0238 H         1 <0>         0.0971
     28 H3          1.0503    1.4623    0.0299 H         1 <0>         0.0991
     29 H4         -0.4938    1.4491   -0.8554 H         1 <0>         0.0990
     30 H5         -0.5644    3.7279    1.0430 H         1 <0>         0.1598
     31 H6         -1.9128    3.7339    3.3781 H         1 <0>         0.1477
     32 H7         -2.3515   -1.1423    4.2135 H         1 <0>         0.1891
     33 H8         -4.6315   -0.2564    8.2217 H         1 <0>         0.2217
     34 H9         -5.7047   -1.0511   10.1412 H         1 <0>         0.1164
     35 H10        -5.1726   -4.6752    9.2428 H         1 <0>         0.1640
     36 H11        -5.9034   -6.5912   10.5975 H         1 <0>         0.1493
     37 H12        -6.8290   -1.9935   12.1546 H         1 <0>         0.1379
     38 H13        -8.5334   -2.0265   13.3663 H         1 <0>         0.0648
     39 H14        -8.4715   -2.5086   15.0787 H         1 <0>         0.1105
     40 H15        -6.9827   -2.0103   14.2401 H         1 <0>         0.0686
     41 H16        -8.0736   -6.7558   12.6526 H         1 <0>         0.2262
@<TRIPOS>BOND
     1    1    2 1
     2    1   27 1
     3    1   28 1
     4    1   29 1
     5    2    6 1
     6    2    3 2
     7    3    4 1
     8    3   30 1
     9    4    5 2
    10    4   31 1
    11    5    6 1
    12    5    7 1
    13    7    8 2
    14    7   12 1
    15    8   32 1
    16    8    9 1
    17    9   13 1
    18    9   10 2
    19   10   12 1
    20   11   12 1
    21   13   14 2
    22   13   15 am
    23   15   16 1
    24   15   33 1
    25   16   17 2
    26   17   18 1
    27   17   34 1
    28   18   23 ar
    29   18   19 ar
    30   19   20 ar
    31   19   35 1
    32   20   21 ar
    33   20   36 1
    34   21   22 ar
    35   21   26 1
    36   22   23 ar
    37   22   24 1
    38   23   37 1
    39   24   25 1
    40   25   38 1
    41   25   39 1
    42   25   40 1
    43   26   41 1
@<TRIPOS>MOLECULE
ZINC00073812
   44    45     0     0     0
SMALL
USER_CHARGES

@<TRIPOS>ATOM
      1 C1          3.9043   -1.4841    0.2312 C.3       1 <0>        -0.2170
      2 C2          2.8325   -0.4780   -0.1929 C.3       1 <0>         0.0132
      3 O1          1.6081   -0.7356    0.5438 O.3       1 <0>        -0.2782
      4 C3          0.5589    0.0680    0.2860 C.2       1 <0>         0.4048
      5 O2          0.6636    0.9602   -0.5322 O.2       1 <0>        -0.4003
      6 N1         -0.6074   -0.1172    0.9356 N.am      1 <0>        -0.3152
      7 C4         -1.6581    0.7903    0.7596 C.ar      1 <0>         0.1336
      8 C5         -1.3878    2.1379    0.5617 C.ar      1 <0>        -0.1544
      9 C6         -2.4268    3.0303    0.3836 C.ar      1 <0>        -0.0034
     10 C7         -3.7355    2.5846    0.4126 C.ar      1 <0>        -0.7767
     11 C8         -4.0082    1.2441    0.6148 C.ar      1 <0>        -0.0097
     12 C9         -2.9735    0.3459    0.7883 C.ar      1 <0>        -0.1881
     13 S1         -5.0584    3.7272    0.1911 S.o2      1 <0>         2.7609
     14 O3         -4.5531    4.7821   -0.6158 O.2       1 <0>        -0.9052
     15 O4         -6.1974    2.9628   -0.1799 O.2       1 <0>        -0.9185
     16 N2         -5.3918    4.3839    1.6743 N.pl3     1 <0>        -0.8204
     17 C10        -4.4722    5.2430    2.2804 C.ar      1 <0>         0.0258
     18 C11        -3.6986    4.7962    3.3441 C.ar      1 <0>        -0.0693
     19 C12        -2.7869    5.6468    3.9379 C.ar      1 <0>        -0.1366
     20 C13        -2.6511    6.9451    3.4815 C.ar      1 <0>        -0.1128
     21 C14        -3.4234    7.3947    2.4262 C.ar      1 <0>        -0.1319
     22 C15        -4.3333    6.5477    1.8244 C.ar      1 <0>        -0.0437
     23 C16        -5.1741    7.0384    0.6740 C.3       1 <0>        -0.1841
     24 C17        -3.8502    3.3835    3.8462 C.3       1 <0>        -0.1750
     25 H1          4.8234   -1.2907   -0.3219 H         1 <0>         0.0941
     26 H2          4.0950   -1.3830    1.2996 H         1 <0>         0.0869
     27 H3          3.5579   -2.4954    0.0181 H         1 <0>         0.0876
     28 H4          2.6417   -0.5790   -1.2613 H         1 <0>         0.0941
     29 H5          3.1788    0.5333    0.0202 H         1 <0>         0.0918
     30 H6         -0.7199   -0.8817    1.5219 H         1 <0>         0.2442
     31 H7         -0.3660    2.4873    0.5433 H         1 <0>         0.1671
     32 H8         -2.2171    4.0778    0.2255 H         1 <0>         0.1573
     33 H9         -5.0314    0.8991    0.6366 H         1 <0>         0.1534
     34 H10        -3.1870   -0.7010    0.9457 H         1 <0>         0.1379
     35 H11        -6.2256    4.1720    2.1223 H         1 <0>         0.2513
     36 H12        -2.1822    5.2989    4.7624 H         1 <0>         0.1325
     37 H13        -1.9406    7.6096    3.9506 H         1 <0>         0.1312
     38 H14        -3.3152    8.4093    2.0724 H         1 <0>         0.1368
     39 H15        -6.0376    7.5800    1.0602 H         1 <0>         0.0792
     40 H16        -4.5795    7.7024    0.0466 H         1 <0>         0.0921
     41 H17        -5.5134    6.1875    0.0832 H         1 <0>         0.1098
     42 H18        -3.1030    2.7471    3.3719 H         1 <0>         0.0903
     43 H19        -3.7100    3.3649    4.9270 H         1 <0>         0.0838
     44 H20        -4.8473    3.0164    3.6028 H         1 <0>         0.0806
@<TRIPOS>BOND
     1    1    2 1
     2    1   25 1
     3    1   26 1
     4    1   27 1
     5    2    3 1
     6    2   28 1
     7    2   29 1
     8    3    4 1
     9    4    5 2
    10    4    6 am
    11    6    7 1
    12    6   30 1
    13    7   12 ar
    14    7    8 ar
    15    8    9 ar
    16    8   31 1
    17    9   10 ar
    18    9   32 1
    19   10   11 ar
    20   10   13 1
    21   11   12 ar
    22   11   33 1
    23   12   34 1
    24   13   14 2
    25   13   15 2
    26   13   16 1
    27   16   17 1
    28   16   35 1
    29   17   22 ar
    30   17   18 ar
    31   18   19 ar
    32   18   24 1
    33   19   20 ar
    34   19   36 1
    35   20   21 ar
    36   20   37 1
    37   21   22 ar
    38   21   38 1
    39   22   23 1
    40   23   39 1
    41   23   40 1
    42   23   41 1
    43   24   42 1
    44   24   43 1
    45   24   44 1
@<TRIPOS>MOLECULE
ZINC00075929
   41    44     0     0     0
SMALL
USER_CHARGES

@<TRIPOS>ATOM
      1 C1         -2.0328    0.7982   -0.2817 C.3       1 <0>        -0.1741
      2 C2         -0.9865    1.6824    0.3464 C.ar      1 <0>        -0.0570
      3 C3         -0.0011    1.1280    1.1426 C.ar      1 <0>        -0.1380
      4 C4          0.9643    1.9350    1.7164 C.ar      1 <0>        -0.1048
      5 C5          0.9441    3.2988    1.5000 C.ar      1 <0>        -0.1205
      6 C6         -0.0477    3.8599    0.7054 C.ar      1 <0>         0.0588
      7 C7         -1.0163    3.0462    0.1309 C.ar      1 <0>        -0.1592
      8 N1         -0.0714    5.2393    0.4848 N.pl3     1 <0>        -0.2727
      9 C8          1.1126    5.9455    0.3993 C.ar      1 <0>         0.1326
     10 C9          1.0791    7.4085    0.2824 C.ar      1 <0>         0.1324
     11 N2          2.1953    8.1014    0.2001 N.ar      1 <0>        -0.1532
     12 C10         3.3727    7.4635    0.2229 C.ar      1 <0>        -0.1047
     13 C11         3.4065    5.9860    0.3404 C.ar      1 <0>        -0.1044
     14 N3          2.2595    5.3001    0.4289 N.ar      1 <0>        -0.1535
     15 N4          4.6919    5.7242    0.3305 N.2       1 <0>        -0.0313
     16 O1          5.3084    6.7648    0.2323 O.3       1 <0>         0.1437
     17 N5          4.6448    7.7787    0.1670 N.2       1 <0>        -0.0312
     18 N6         -0.1361    8.0647    0.2591 N.pl3     1 <0>        -0.2724
     19 C12        -0.1762    9.4613    0.2660 C.ar      1 <0>         0.0593
     20 C13         0.7909   10.1821    0.9555 C.ar      1 <0>        -0.1211
     21 C14         0.7510   11.5625    0.9563 C.ar      1 <0>        -0.1045
     22 C15        -0.2560   12.2272    0.2806 C.ar      1 <0>        -0.1383
     23 C16        -1.2232   11.5127   -0.4024 C.ar      1 <0>        -0.0568
     24 C17        -1.1864   10.1322   -0.4118 C.ar      1 <0>        -0.1597
     25 C18        -2.3189   12.2413   -1.1369 C.3       1 <0>        -0.1741
     26 H1         -2.8840    0.7068    0.3930 H         1 <0>         0.0861
     27 H2         -2.3614    1.2370   -1.2238 H         1 <0>         0.0816
     28 H3         -1.6097   -0.1888   -0.4686 H         1 <0>         0.0858
     29 H4          0.0172    0.0617    1.3131 H         1 <0>         0.1328
     30 H5          1.7351    1.4982    2.3340 H         1 <0>         0.1374
     31 H6          1.6988    3.9284    1.9478 H         1 <0>         0.1588
     32 H7         -1.7888    3.4791   -0.4873 H         1 <0>         0.1281
     33 H8         -0.9194    5.7011    0.3917 H         1 <0>         0.2416
     34 H9         -0.9617    7.5559    0.2378 H         1 <0>         0.2416
     35 H10         1.5752    9.6636    1.4868 H         1 <0>         0.1590
     36 H11         1.5046   12.1235    1.4890 H         1 <0>         0.1374
     37 H12        -0.2873   13.3067    0.2866 H         1 <0>         0.1328
     38 H13        -1.9422    9.5749   -0.9451 H         1 <0>         0.1280
     39 H14        -3.1649   12.3958   -0.4672 H         1 <0>         0.0862
     40 H15        -1.9465   13.2065   -1.4804 H         1 <0>         0.0858
     41 H16        -2.6378   11.6488   -1.9944 H         1 <0>         0.0816
@<TRIPOS>BOND
     1    1    2 1
     2    1   26 1
     3    1   27 1
     4    1   28 1
     5    2    7 ar
     6    2    3 ar
     7    3    4 ar
     8    3   29 1
     9    4    5 ar
    10    4   30 1
    11    5    6 ar
    12    5   31 1
    13    6    7 ar
    14    6    8 1
    15    7   32 1
    16    8    9 1
    17    8   33 1
    18    9   14 ar
    19    9   10 ar
    20   10   11 ar
    21   10   18 1
    22   11   12 ar
    23   12   17 2
    24   12   13 ar
    25   13   14 ar
    26   13   15 2
    27   15   16 1
    28   16   17 1
    29   18   19 1
    30   18   34 1
    31   19   24 ar
    32   19   20 ar
    33   20   21 ar
    34   20   35 1
    35   21   22 ar
    36   21   36 1
    37   22   23 ar
    38   22   37 1
    39   23   24 ar
    40   23   25 1
    41   24   38 1
    42   25   39 1
    43   25   40 1
    44   25   41 1
@<TRIPOS>MOLECULE
ZINC00076679
   43    45     0     0     0
SMALL
USER_CHARGES

@<TRIPOS>ATOM
      1 C1         -5.4141    3.1225   -1.1555 C.3       1 <0>        -0.2260
      2 C2         -4.8792    2.4094    0.0880 C.3       1 <0>         0.0884
      3 C3         -5.3704    0.9604    0.0958 C.3       1 <0>        -0.2131
      4 C4         -5.3829    3.1254    1.3428 C.3       1 <0>        -0.2260
      5 N1         -3.4145    2.4284    0.0697 N.am      1 <0>        -0.3111
      6 C5         -2.6394    1.3291    0.0617 C.2       1 <0>         0.3584
      7 O1         -3.0365    0.1816    0.0687 O.2       1 <0>        -0.3003
      8 C6         -1.2212    1.7528    0.0390 C.ar      1 <0>        -0.1112
      9 C7         -0.0121    1.0753    0.0317 C.ar      1 <0>        -0.0716
     10 C8          1.1765    1.7849    0.0164 C.ar      1 <0>        -0.0939
     11 C9          1.1636    3.1797    0.0142 C.ar      1 <0>        -0.1149
     12 C10        -0.0516    3.8706    0.0274 C.ar      1 <0>        -0.0037
     13 C11        -1.2409    3.1626    0.0422 C.ar      1 <0>        -0.1421
     14 C12        -2.6682    3.5473    0.0591 C.2       1 <0>         0.3620
     15 O2         -3.0956    4.6841    0.0627 O.2       1 <0>        -0.2952
     16 C13         2.4391    3.9297   -0.0017 C.2       1 <0>         0.3459
     17 O3          2.4294    5.1451   -0.0036 O.2       1 <0>        -0.3427
     18 N2          3.6115    3.2651   -0.0140 N.am      1 <0>        -0.3213
     19 C14         4.8153    3.9711   -0.1269 C.ar      1 <0>         0.0464
     20 C15         5.8790    3.4226   -0.8314 C.ar      1 <0>        -0.1458
     21 C16         7.0639    4.1220   -0.9471 C.ar      1 <0>        -0.1379
     22 C17         7.1958    5.3674   -0.3503 C.ar      1 <0>         0.0582
     23 C18         6.1356    5.9135    0.3585 C.ar      1 <0>        -0.1370
     24 C19         4.9481    5.2178    0.4703 C.ar      1 <0>        -0.1115
     25 O4          8.3646    6.0532   -0.4603 O.3       1 <0>        -0.2898
     26 H1         -5.0553    2.6124   -2.0495 H         1 <0>         0.0819
     27 H2         -6.5039    3.1084   -1.1419 H         1 <0>         0.0887
     28 H3         -5.0642    4.1548   -1.1611 H         1 <0>         0.1021
     29 H4         -4.9894    0.4523    0.9817 H         1 <0>         0.0985
     30 H5         -6.4603    0.9463    0.1094 H         1 <0>         0.0808
     31 H6         -5.0116    0.4503   -0.7982 H         1 <0>         0.0986
     32 H7         -5.0330    4.1577    1.3372 H         1 <0>         0.1020
     33 H8         -6.4727    3.1113    1.3564 H         1 <0>         0.0887
     34 H9         -5.0019    2.6174    2.2286 H         1 <0>         0.0816
     35 H10         0.0028   -0.0046    0.0333 H         1 <0>         0.1544
     36 H11         2.1181    1.2561    0.0065 H         1 <0>         0.1353
     37 H12        -0.0624    4.9506    0.0257 H         1 <0>         0.1775
     38 H13         3.6213    2.2976    0.0554 H         1 <0>         0.2325
     39 H14         5.7779    2.4511   -1.2923 H         1 <0>         0.1315
     40 H15         7.8895    3.6977   -1.4990 H         1 <0>         0.1423
     41 H16         6.2392    6.8829    0.8232 H         1 <0>         0.1459
     42 H17         4.1228    5.6433    1.0218 H         1 <0>         0.1683
     43 H18         8.9981    5.8668    0.2461 H         1 <0>         0.2254
@<TRIPOS>BOND
     1    1    2 1
     2    1   26 1
     3    1   27 1
     4    1   28 1
     5    2    3 1
     6    2    4 1
     7    2    5 1
     8    3   29 1
     9    3   30 1
    10    3   31 1
    11    4   32 1
    12    4   33 1
    13    4   34 1
    14    5   14 am
    15    5    6 am
    16    6    7 2
    17    6    8 1
    18    8   13 ar
    19    8    9 ar
    20    9   10 ar
    21    9   35 1
    22   10   11 ar
    23   10   36 1
    24   11   12 ar
    25   11   16 1
    26   12   13 ar
    27   12   37 1
    28   13   14 1
    29   14   15 2
    30   16   17 2
    31   16   18 am
    32   18   19 1
    33   18   38 1
    34   19   24 ar
    35   19   20 ar
    36   20   21 ar
    37   20   39 1
    38   21   22 ar
    39   21   40 1
    40   22   23 ar
    41   22   25 1
    42   23   24 ar
    43   23   41 1
    44   24   42 1
    45   25   43 1
@<TRIPOS>MOLECULE
ZINC00077379
   45    47     0     0     0
SMALL
USER_CHARGES

@<TRIPOS>ATOM
      1 C1         -4.8286    6.7813   -7.0340 C.3       1 <0>        -0.0641
      2 O1         -3.6764    7.2619   -6.3386 O.3       1 <0>        -0.2090
      3 C2         -3.3653    6.6520   -5.1641 C.ar      1 <0>         0.1077
      4 C3         -2.2594    7.0691   -4.4377 C.ar      1 <0>        -0.1522
      5 C4         -1.9431    6.4499   -3.2448 C.ar      1 <0>        -0.0700
      6 C5         -2.7319    5.4099   -2.7723 C.ar      1 <0>        -0.0058
      7 C6         -3.8350    4.9891   -3.5022 C.ar      1 <0>        -0.0659
      8 C7         -4.1542    5.6129   -4.6921 C.ar      1 <0>        -0.2153
      9 N1         -2.4108    4.7803   -1.5598 N.am      1 <0>        -0.2672
     10 C8         -3.1811    4.8736   -0.4688 C.2       1 <0>         0.3108
     11 O2         -4.2195    5.4946   -0.3934 O.2       1 <0>        -0.2957
     12 C9         -2.5499    4.0815    0.6554 C.3       1 <0>        -0.2171
     13 C10        -1.2677    3.5083    0.0182 C.3       1 <0>         0.0098
     14 H1         -0.3835    3.8734    0.5406 H         1 <0>         0.1402
     15 C11        -1.3092    4.0367   -1.3991 C.2       1 <0>         0.2867
     16 O3         -0.4766    3.8212   -2.2535 O.2       1 <0>        -0.2789
     17 N2         -1.2998    2.0436    0.0235 N.pl3     1 <0>        -0.3665
     18 C12        -0.1060    1.3189   -0.0010 C.ar      1 <0>         0.1129
     19 C13         1.1123    1.9853   -0.0362 C.ar      1 <0>        -0.1882
     20 C14         2.2906    1.2656   -0.0661 C.ar      1 <0>        -0.0767
     21 C15         2.2586   -0.1169   -0.0610 C.ar      1 <0>        -0.1277
     22 C16         1.0475   -0.7834   -0.0260 C.ar      1 <0>        -0.0790
     23 C17        -0.1346   -0.0699    0.0040 C.ar      1 <0>        -0.1955
     24 C18         3.5464   -0.8988   -0.0932 C.3       1 <0>        -0.1135
     25 C19         3.9433   -1.1683   -1.5460 C.3       1 <0>         0.0014
     26 O4          5.1645   -1.9098   -1.5766 O.3       1 <0>        -0.3595
     27 H2         -4.6924    5.7277   -7.2781 H         1 <0>         0.0696
     28 H3         -5.7090    6.8969   -6.4018 H         1 <0>         0.0701
     29 H4         -4.9632    7.3526   -7.9524 H         1 <0>         0.1104
     30 H5         -1.6456    7.8780   -4.8056 H         1 <0>         0.1501
     31 H6         -1.0823    6.7749   -2.6792 H         1 <0>         0.1430
     32 H7         -4.4464    4.1771   -3.1372 H         1 <0>         0.1393
     33 H8         -5.0152    5.2888   -5.2577 H         1 <0>         0.1409
     34 H9         -3.2116    3.2770    0.9763 H         1 <0>         0.1320
     35 H10        -2.3034    4.7340    1.4930 H         1 <0>         0.1348
     36 H11        -2.1500    1.5772    0.0440 H         1 <0>         0.2348
     37 H12         1.1380    3.0650   -0.0405 H         1 <0>         0.1326
     38 H13         3.2382    1.7831   -0.0938 H         1 <0>         0.1331
     39 H14         1.0260   -1.8632   -0.0225 H         1 <0>         0.1322
     40 H15        -1.0801   -0.5911    0.0317 H         1 <0>         0.1283
     41 H16         4.3324   -0.3249    0.3976 H         1 <0>         0.0973
     42 H17         3.4093   -1.8464    0.4277 H         1 <0>         0.0967
     43 H18         3.1573   -1.7423   -2.0369 H         1 <0>         0.0608
     44 H19         4.0805   -0.2208   -2.0670 H         1 <0>         0.0627
     45 H20         5.4767   -2.1169   -2.4680 H         1 <0>         0.2097
@<TRIPOS>BOND
     1    1    2 1
     2    1   27 1
     3    1   28 1
     4    1   29 1
     5    2    3 1
     6    3    8 ar
     7    3    4 ar
     8    4    5 ar
     9    4   30 1
    10    5    6 ar
    11    5   31 1
    12    6    7 ar
    13    6    9 1
    14    7    8 ar
    15    7   32 1
    16    8   33 1
    17    9   15 am
    18    9   10 am
    19   10   11 2
    20   10   12 1
    21   12   13 1
    22   12   34 1
    23   12   35 1
    24   13   14 1
    25   13   15 1
    26   13   17 1
    27   15   16 2
    28   17   18 1
    29   17   36 1
    30   18   23 ar
    31   18   19 ar
    32   19   20 ar
    33   19   37 1
    34   20   21 ar
    35   20   38 1
    36   21   22 ar
    37   21   24 1
    38   22   23 ar
    39   22   39 1
    40   23   40 1
    41   24   25 1
    42   24   41 1
    43   24   42 1
    44   25   26 1
    45   25   43 1
    46   25   44 1
    47   26   45 1
@<TRIPOS>MOLECULE
ZINC00080999
   41    43     0     0     0
SMALL
USER_CHARGES

@<TRIPOS>ATOM
      1 C1          5.2505    7.5593   -0.8570 C.3       1 <0>        -0.0637
      2 O1          3.8377    7.7693   -0.8154 O.3       1 <0>        -0.2091
      3 C2          3.0553    6.6705   -0.6508 C.ar      1 <0>         0.1213
      4 C3          3.6394    5.4162   -0.5315 C.ar      1 <0>        -0.2358
      5 C4          2.8508    4.2978   -0.3585 C.ar      1 <0>        -0.0533
      6 C5          1.4641    4.4238   -0.3137 C.ar      1 <0>        -0.0857
      7 C6          0.8765    5.6870   -0.4339 C.ar      1 <0>         0.1371
      8 C7          1.6758    6.8050   -0.6020 C.ar      1 <0>        -0.1971
      9 O2         -0.4750    5.8170   -0.3854 O.3       1 <0>        -0.2742
     10 C8          0.6136    3.2221   -0.1329 C.2       1 <0>        -0.0262
     11 C9          1.0725    1.8943    0.0009 C.2       1 <0>        -0.1048
     12 C10        -0.0106    1.0943    0.1452 C.2       1 <0>        -0.0871
     13 N1         -1.1178    1.8813    0.0989 N.pl3     1 <0>        -0.1879
     14 H1         -2.0646    1.5678    0.1724 H         1 <0>         0.2903
     15 N2         -0.7014    3.2079   -0.0697 N.2       1 <0>        -0.0485
     16 O3          2.3726    1.4897   -0.0119 O.3       1 <0>        -0.1193
     17 C11         3.0532    1.4963    1.1615 C.ar      1 <0>         0.1104
     18 C12         2.3923    1.8076    2.3447 C.ar      1 <0>        -0.2219
     19 C13         3.0781    1.8099    3.5383 C.ar      1 <0>        -0.0411
     20 C14         4.4434    1.5094    3.5584 C.ar      1 <0>        -0.1539
     21 C15         5.1054    1.2025    2.3658 C.ar      1 <0>        -0.0316
     22 C16         4.4112    1.1973    1.1771 C.ar      1 <0>        -0.1794
     23 C17         5.1831    1.5156    4.8340 C.2       1 <0>         0.3530
     24 O4          6.3695    1.2538    4.8496 O.2       1 <0>        -0.3663
     25 O5          4.5432    1.8116    5.9823 O.3       1 <0>        -0.2692
     26 C18         5.3342    1.7987    7.1999 C.3       1 <0>        -0.0507
     27 H2          5.4953    6.8983   -1.6883 H         1 <0>         0.0708
     28 H3          5.7561    8.5155   -0.9920 H         1 <0>         0.1097
     29 H4          5.5779    7.1041    0.0778 H         1 <0>         0.0700
     30 H5          4.7141    5.3166   -0.5701 H         1 <0>         0.1401
     31 H6          3.3081    3.3242   -0.2618 H         1 <0>         0.1549
     32 H7          1.2249    7.7820   -0.6948 H         1 <0>         0.1558
     33 H8         -0.8249    5.9572    0.5051 H         1 <0>         0.2352
     34 H9          0.0028    0.0216    0.2700 H         1 <0>         0.1817
     35 H10         1.3386    2.0439    2.3278 H         1 <0>         0.1496
     36 H11         2.5631    2.0471    4.4575 H         1 <0>         0.1499
     37 H12         6.1599    0.9695    2.3772 H         1 <0>         0.1598
     38 H13         4.9218    0.9604    0.2554 H         1 <0>         0.1500
     39 H14         4.6993    2.0535    8.0484 H         1 <0>         0.1021
     40 H15         5.7570    0.8050    7.3479 H         1 <0>         0.0826
     41 H16         6.1402    2.5279    7.1173 H         1 <0>         0.0827
@<TRIPOS>BOND
     1    1    2 1
     2    1   27 1
     3    1   28 1
     4    1   29 1
     5    2    3 1
     6    3    8 ar
     7    3    4 ar
     8    4    5 ar
     9    4   30 1
    10    5    6 ar
    11    5   31 1
    12    6    7 ar
    13    6   10 1
    14    7    8 ar
    15    7    9 1
    16    8   32 1
    17    9   33 1
    18   10   15 2
    19   10   11 1
    20   11   12 2
    21   11   16 1
    22   12   13 1
    23   12   34 1
    24   13   14 1
    25   13   15 1
    26   16   17 1
    27   17   22 ar
    28   17   18 ar
    29   18   19 ar
    30   18   35 1
    31   19   20 ar
    32   19   36 1
    33   20   21 ar
    34   20   23 1
    35   21   22 ar
    36   21   37 1
    37   22   38 1
    38   23   24 2
    39   23   25 1
    40   25   26 1
    41   26   39 1
    42   26   40 1
    43   26   41 1
@<TRIPOS>MOLECULE
ZINC00080999
   41    43     0     0     0
SMALL
USER_CHARGES

@<TRIPOS>ATOM
      1 C1          5.2505    7.5593   -0.8570 C.3       1 <0>        -0.0648
      2 O1          3.8377    7.7693   -0.8154 O.3       1 <0>        -0.2067
      3 C2          3.0553    6.6705   -0.6508 C.ar      1 <0>         0.1231
      4 C3          3.6394    5.4162   -0.5315 C.ar      1 <0>        -0.2262
      5 C4          2.8508    4.2978   -0.3585 C.ar      1 <0>        -0.0448
      6 C5          1.4641    4.4238   -0.3137 C.ar      1 <0>        -0.1016
      7 C6          0.8765    5.6870   -0.4339 C.ar      1 <0>         0.1075
      8 C7          1.6758    6.8050   -0.6020 C.ar      1 <0>        -0.1830
      9 O2         -0.4750    5.8170   -0.3854 O.3       1 <0>        -0.2989
     10 C8          0.6136    3.2221   -0.1329 C.2       1 <0>         0.0057
     11 C9          1.0725    1.8943    0.0009 C.2       1 <0>        -0.1186
     12 C10        -0.0106    1.0942    0.1443 C.2       1 <0>        -0.1168
     13 N1         -1.1179    1.8811    0.0975 N.2       1 <0>        -0.1075
     14 H1         -1.2999    4.0066   -0.1325 H         1 <0>         0.3012
     15 N2         -0.7014    3.2078   -0.0706 N.pl3     1 <0>        -0.1227
     16 O3          2.3726    1.4897   -0.0119 O.3       1 <0>        -0.1189
     17 C11         3.0532    1.4963    1.1615 C.ar      1 <0>         0.1087
     18 C12         2.3923    1.8076    2.3447 C.ar      1 <0>        -0.2218
     19 C13         3.0781    1.8099    3.5383 C.ar      1 <0>        -0.0415
     20 C14         4.4434    1.5094    3.5584 C.ar      1 <0>        -0.1549
     21 C15         5.1054    1.2025    2.3658 C.ar      1 <0>        -0.0321
     22 C16         4.4112    1.1973    1.1771 C.ar      1 <0>        -0.1816
     23 C17         5.1831    1.5156    4.8340 C.2       1 <0>         0.3531
     24 O4          6.3695    1.2538    4.8496 O.2       1 <0>        -0.3667
     25 O5          4.5432    1.8116    5.9823 O.3       1 <0>        -0.2692
     26 C18         5.3342    1.7987    7.1999 C.3       1 <0>        -0.0506
     27 H2          5.4953    6.8983   -1.6883 H         1 <0>         0.0726
     28 H3          5.7561    8.5155   -0.9920 H         1 <0>         0.1132
     29 H4          5.5779    7.1041    0.0778 H         1 <0>         0.0718
     30 H5          4.7141    5.3166   -0.5701 H         1 <0>         0.1451
     31 H6          3.3081    3.3242   -0.2618 H         1 <0>         0.1638
     32 H7          1.2249    7.7820   -0.6948 H         1 <0>         0.1587
     33 H8         -0.8249    5.9572    0.5051 H         1 <0>         0.2327
     34 H9          0.0029    0.0220    0.2730 H         1 <0>         0.1953
     35 H10         1.3386    2.0439    2.3278 H         1 <0>         0.1510
     36 H11         2.5631    2.0471    4.4575 H         1 <0>         0.1498
     37 H12         6.1599    0.9695    2.3772 H         1 <0>         0.1593
     38 H13         4.9218    0.9604    0.2554 H         1 <0>         0.1493
     39 H14         4.6993    2.0535    8.0484 H         1 <0>         0.1021
     40 H15         5.7570    0.8050    7.3479 H         1 <0>         0.0832
     41 H16         6.1402    2.5279    7.1173 H         1 <0>         0.0819
@<TRIPOS>BOND
     1    1    2 1
     2    1   27 1
     3    1   28 1
     4    1   29 1
     5    2    3 1
     6    3    8 ar
     7    3    4 ar
     8    4    5 ar
     9    4   30 1
    10    5    6 ar
    11    5   31 1
    12    6    7 ar
    13    6   10 1
    14    7    8 ar
    15    7    9 1
    16    8   32 1
    17    9   33 1
    18   10   11 2
    19   10   15 1
    20   11   16 1
    21   11   12 1
    22   12   34 1
    23   12   13 2
    24   13   15 1
    25   14   15 1
    26   16   17 1
    27   17   22 ar
    28   17   18 ar
    29   18   19 ar
    30   18   35 1
    31   19   20 ar
    32   19   36 1
    33   20   21 ar
    34   20   23 1
    35   21   22 ar
    36   21   37 1
    37   22   38 1
    38   23   24 2
    39   23   25 1
    40   25   26 1
    41   26   39 1
    42   26   40 1
    43   26   41 1
@<TRIPOS>MOLECULE
ZINC00082027
   40    41     0     0     0
SMALL
USER_CHARGES

@<TRIPOS>ATOM
      1 C1         -1.3446   -3.6991    9.4402 C.3       1 <0>        -0.2319
      2 C2         -1.7148   -4.1295    8.0194 C.3       1 <0>         0.0458
      3 C3         -1.0536   -5.4729    7.7049 C.3       1 <0>        -0.2216
      4 N1         -3.1697   -4.2646    7.9136 N.pl3     1 <0>        -0.8793
      5 S1         -4.0792   -3.0032    7.3443 S.o2      1 <0>         2.7620
      6 O1         -3.6617   -1.8472    8.0574 O.2       1 <0>        -0.9169
      7 O2         -5.4291   -3.4471    7.3360 O.2       1 <0>        -0.9166
      8 C4         -3.6223   -2.7492    5.6616 C.ar      1 <0>        -0.7782
      9 C5         -4.2938   -3.4196    4.6557 C.ar      1 <0>        -0.0088
     10 C6         -3.9387   -3.2220    3.3357 C.ar      1 <0>        -0.1520
     11 C7         -2.9057   -2.3494    3.0192 C.ar      1 <0>         0.1148
     12 C8         -2.2296   -1.6821    4.0322 C.ar      1 <0>        -0.1875
     13 C9         -2.5933   -1.8797    5.3498 C.ar      1 <0>        -0.0154
     14 N2         -2.5432   -2.1473    1.6829 N.am      1 <0>        -0.3344
     15 C10        -3.4859   -2.1587    0.7198 C.2       1 <0>         0.2978
     16 O3         -4.6353   -2.4269    0.9994 O.2       1 <0>        -0.3256
     17 C11        -3.1120   -1.8383   -0.7044 C.3       1 <0>        -0.0971
     18 C12        -4.3384   -1.9198   -1.5763 C.2       1 <0>        -0.2573
     19 C13        -5.2277   -0.9466   -1.8919 C.2       1 <0>        -0.1507
     20 C14        -6.2912   -1.2532   -2.7198 C.2       1 <0>        -0.1737
     21 C15        -6.4136   -2.5180   -3.1916 C.2       1 <0>        -0.2989
     22 S2         -4.9976   -3.3233   -2.4611 S.3       1 <0>         0.3331
     23 H1         -1.6923   -4.4501   10.1496 H         1 <0>         0.0799
     24 H2         -0.2621   -3.5985    9.5190 H         1 <0>         0.0780
     25 H3         -1.8157   -2.7420    9.6643 H         1 <0>         0.1030
     26 H4         -1.3671   -3.3785    7.3101 H         1 <0>         0.0925
     27 H5         -1.3173   -5.7795    6.6927 H         1 <0>         0.0801
     28 H6          0.0289   -5.3723    7.7837 H         1 <0>         0.0840
     29 H7         -1.4013   -6.2239    8.4142 H         1 <0>         0.0813
     30 H8         -3.6003   -5.0930    8.1769 H         1 <0>         0.2444
     31 H9         -5.0970   -4.0981    4.9024 H         1 <0>         0.1552
     32 H10        -4.4639   -3.7453    2.5504 H         1 <0>         0.1725
     33 H11        -1.4232   -1.0059    3.7895 H         1 <0>         0.1346
     34 H12        -2.0708   -1.3576    6.1378 H         1 <0>         0.1502
     35 H13        -1.6134   -1.9991    1.4498 H         1 <0>         0.2340
     36 H14        -2.3688   -2.5544   -1.0549 H         1 <0>         0.1125
     37 H15        -2.6976   -0.8313   -0.7535 H         1 <0>         0.1180
     38 H16        -5.1068    0.0535   -1.5025 H         1 <0>         0.1416
     39 H17        -7.0138   -0.4963   -2.9869 H         1 <0>         0.1435
     40 H18        -7.1709   -2.9313   -3.8413 H         1 <0>         0.1872
@<TRIPOS>BOND
     1    1    2 1
     2    1   23 1
     3    1   24 1
     4    1   25 1
     5    2    3 1
     6    2    4 1
     7    2   26 1
     8    3   27 1
     9    3   28 1
    10    3   29 1
    11    4    5 1
    12    4   30 1
    13    5    6 2
    14    5    7 2
    15    5    8 1
    16    8   13 ar
    17    8    9 ar
    18    9   10 ar
    19    9   31 1
    20   10   11 ar
    21   10   32 1
    22   11   12 ar
    23   11   14 1
    24   12   13 ar
    25   12   33 1
    26   13   34 1
    27   14   15 am
    28   14   35 1
    29   15   16 2
    30   15   17 1
    31   17   18 1
    32   17   36 1
    33   17   37 1
    34   18   22 1
    35   18   19 2
    36   19   20 1
    37   19   38 1
    38   20   21 2
    39   20   39 1
    40   21   22 1
    41   21   40 1
@<TRIPOS>MOLECULE
ZINC00084106
   44    47     0     0     0
SMALL
USER_CHARGES

@<TRIPOS>ATOM
      1 C1          8.2288    2.4137    1.1568 C.3       1 <0>        -0.1758
      2 C2          8.3397    3.7220    0.4171 C.ar      1 <0>        -0.1048
      3 C3          9.5364    4.4116    0.4078 C.ar      1 <0>        -0.1125
      4 C4          9.6393    5.6116   -0.2714 C.ar      1 <0>        -0.1338
      5 C5          8.5451    6.1258   -0.9432 C.ar      1 <0>        -0.1147
      6 C6          7.3471    5.4392   -0.9420 C.ar      1 <0>        -0.1125
      7 C7          7.2388    4.2354   -0.2565 C.ar      1 <0>         0.0518
      8 N1          6.0269    3.5402   -0.2496 N.pl3     1 <0>        -0.2698
      9 C8          4.8326    4.2342   -0.2403 C.ar      1 <0>         0.1338
     10 C9          3.5663    3.4995   -0.1314 C.ar      1 <0>         0.1314
     11 N2          2.4164    4.1403   -0.1257 N.ar      1 <0>        -0.1540
     12 C10         2.4039    5.4769   -0.2101 C.ar      1 <0>        -0.1065
     13 C11         3.6827    6.2187   -0.3206 C.ar      1 <0>        -0.1040
     14 N3          4.8416    5.5475   -0.3297 N.ar      1 <0>        -0.1570
     15 N4          3.2880    7.4680   -0.3862 N.2       1 <0>        -0.0319
     16 O1          2.0763    7.5050   -0.3314 O.3       1 <0>         0.1436
     17 N5          1.5098    6.4364   -0.2326 N.2       1 <0>        -0.0313
     18 N6          3.5813    2.1214   -0.0397 N.pl3     1 <0>        -0.2656
     19 C12         2.3811    1.4066   -0.0636 C.ar      1 <0>         0.0605
     20 C13         1.2582    1.9513   -0.6745 C.ar      1 <0>        -0.1283
     21 C14         0.0737    1.2421   -0.6963 C.ar      1 <0>        -0.1074
     22 C15         0.0040   -0.0090   -0.1105 C.ar      1 <0>        -0.1382
     23 C16         1.1191   -0.5536    0.4991 C.ar      1 <0>        -0.0554
     24 C17         2.3073    0.1501    0.5242 C.ar      1 <0>        -0.1116
     25 C18         3.5222   -0.4443    1.1888 C.3       1 <0>        -0.1778
     26 C19         1.0381   -1.9168    1.1364 C.3       1 <0>        -0.1761
     27 H1          8.4864    1.5941    0.4861 H         1 <0>         0.0812
     28 H2          8.9126    2.4171    2.0057 H         1 <0>         0.0925
     29 H3          7.2071    2.2837    1.5138 H         1 <0>         0.0716
     30 H4         10.3928    4.0130    0.9313 H         1 <0>         0.1334
     31 H5         10.5764    6.1485   -0.2777 H         1 <0>         0.1319
     32 H6          8.6290    7.0631   -1.4730 H         1 <0>         0.1374
     33 H7          6.4943    5.8390   -1.4705 H         1 <0>         0.1689
     34 H8          6.0242    2.5702   -0.2512 H         1 <0>         0.2433
     35 H9          4.4251    1.6499    0.0414 H         1 <0>         0.2437
     36 H10         1.3121    2.9279   -1.1324 H         1 <0>         0.1729
     37 H11        -0.7981    1.6628   -1.1753 H         1 <0>         0.1372
     38 H12        -0.9238   -0.5615   -0.1290 H         1 <0>         0.1323
     39 H13         4.0904   -1.0206    0.4587 H         1 <0>         0.0811
     40 H14         4.1470    0.3557    1.5860 H         1 <0>         0.0692
     41 H15         3.2080   -1.0978    2.0026 H         1 <0>         0.0963
     42 H16         1.2941   -2.6781    0.3996 H         1 <0>         0.0866
     43 H17         1.7369   -1.9696    1.9713 H         1 <0>         0.0834
     44 H18         0.0248   -2.0885    1.4994 H         1 <0>         0.0850
@<TRIPOS>BOND
     1    1    2 1
     2    1   27 1
     3    1   28 1
     4    1   29 1
     5    2    7 ar
     6    2    3 ar
     7    3    4 ar
     8    3   30 1
     9    4    5 ar
    10    4   31 1
    11    5    6 ar
    12    5   32 1
    13    6    7 ar
    14    6   33 1
    15    7    8 1
    16    8    9 1
    17    8   34 1
    18    9   14 ar
    19    9   10 ar
    20   10   11 ar
    21   10   18 1
    22   11   12 ar
    23   12   17 2
    24   12   13 ar
    25   13   14 ar
    26   13   15 2
    27   15   16 1
    28   16   17 1
    29   18   19 1
    30   18   35 1
    31   19   24 ar
    32   19   20 ar
    33   20   21 ar
    34   20   36 1
    35   21   22 ar
    36   21   37 1
    37   22   23 ar
    38   22   38 1
    39   23   24 ar
    40   23   26 1
    41   24   25 1
    42   25   39 1
    43   25   40 1
    44   25   41 1
    45   26   42 1
    46   26   43 1
    47   26   44 1
@<TRIPOS>MOLECULE
ZINC00086200
   39    40     0     0     0
SMALL
USER_CHARGES

@<TRIPOS>ATOM
      1 C1          0.2178    1.9866    4.9200 C.3       1 <0>        -0.0544
      2 N1          0.7711    1.4842    3.6600 N.am      1 <0>        -0.3877
      3 C2          0.1102    1.6910    2.5037 C.2       1 <0>         0.3310
      4 O1         -0.9455    2.2946    2.5064 O.2       1 <0>        -0.3427
      5 C3          0.6670    1.1854    1.2358 C.ar      1 <0>        -0.0856
      6 C4          1.8798    0.4916    1.2277 C.ar      1 <0>        -0.1164
      7 C5          2.3950    0.0221    0.0395 C.ar      1 <0>        -0.1091
      8 C6          1.7166    0.2338   -1.1508 C.ar      1 <0>        -0.1194
      9 C7          0.5183    0.9168   -1.1599 C.ar      1 <0>        -0.0835
     10 C8         -0.0178    1.3983    0.0288 C.ar      1 <0>        -0.2642
     11 S1         -1.5520    2.2648    0.0217 S.3       1 <0>         0.4988
     12 C9         -1.0865    3.9570    0.1777 C.ar      1 <0>        -0.1167
     13 C10         0.2557    4.3177    0.1533 C.ar      1 <0>        -0.1718
     14 C11         0.6173    5.6431    0.2752 C.ar      1 <0>        -0.0326
     15 C12        -0.3509    6.6244    0.4227 C.ar      1 <0>        -0.1513
     16 C13        -1.6861    6.2867    0.4492 C.ar      1 <0>        -0.0234
     17 C14        -2.0696    4.9491    0.3216 C.ar      1 <0>        -0.1421
     18 C15        -3.4970    4.5814    0.3425 C.2       1 <0>         0.3500
     19 O2         -3.8262    3.4157    0.2349 O.2       1 <0>        -0.3499
     20 N2         -4.4371    5.5371    0.4808 N.am      1 <0>        -0.3863
     21 C16        -5.8557    5.1717    0.5016 C.3       1 <0>        -0.0538
     22 N3          0.0523    8.0428    0.5519 N.pl3     1 <0>         0.5537
     23 O3          1.2320    8.3451    0.5285 O.2       1 <0>        -0.3611
     24 O4         -0.7955    8.9076    0.6816 O.3       1 <0>        -0.3673
     25 H1         -0.7605    1.5376    5.0919 H         1 <0>         0.0900
     26 H2          0.8865    1.7257    5.7402 H         1 <0>         0.0769
     27 H3          0.1155    3.0704    4.8653 H         1 <0>         0.0876
     28 H4          1.6131    1.0026    3.6579 H         1 <0>         0.2210
     29 H5          2.4126    0.3233    2.1519 H         1 <0>         0.1307
     30 H6          3.3325   -0.5143    0.0353 H         1 <0>         0.1374
     31 H7          2.1290   -0.1383   -2.0770 H         1 <0>         0.1392
     32 H8         -0.0040    1.0776   -2.0914 H         1 <0>         0.1496
     33 H9          1.0161    3.5594    0.0384 H         1 <0>         0.1535
     34 H10         1.6615    5.9184    0.2554 H         1 <0>         0.1627
     35 H11        -2.4360    7.0554    0.5639 H         1 <0>         0.1573
     36 H12        -4.1745    6.4670    0.5665 H         1 <0>         0.2255
     37 H13        -6.0442    4.4944    1.3345 H         1 <0>         0.0897
     38 H14        -6.4607    6.0706    0.6201 H         1 <0>         0.0783
     39 H15        -6.1175    4.6783   -0.4344 H         1 <0>         0.0865
@<TRIPOS>BOND
     1    1    2 1
     2    1   25 1
     3    1   26 1
     4    1   27 1
     5    2    3 am
     6    2   28 1
     7    3    4 2
     8    3    5 1
     9    5   10 ar
    10    5    6 ar
    11    6    7 ar
    12    6   29 1
    13    7    8 ar
    14    7   30 1
    15    8    9 ar
    16    8   31 1
    17    9   10 ar
    18    9   32 1
    19   10   11 1
    20   11   12 1
    21   12   17 ar
    22   12   13 ar
    23   13   14 ar
    24   13   33 1
    25   14   15 ar
    26   14   34 1
    27   15   16 ar
    28   15   22 1
    29   16   17 ar
    30   16   35 1
    31   17   18 1
    32   18   19 2
    33   18   20 am
    34   20   21 1
    35   20   36 1
    36   21   37 1
    37   21   38 1
    38   21   39 1
    39   22   23 2
    40   22   24 1
@<TRIPOS>MOLECULE
ZINC00087451
   43    45     0     0     0
SMALL
USER_CHARGES

@<TRIPOS>ATOM
      1 C1          8.5393   -3.4095    0.5298 C.3       1 <0>        -0.0515
      2 N1          8.3140   -3.2834   -0.9123 N.am      1 <0>        -0.2377
      3 C2          7.1765   -2.6468   -1.3821 C.2       1 <0>         0.1284
      4 C3          6.9871   -2.5408   -2.7558 C.2       1 <0>        -0.2761
      5 C4          7.9513   -3.0803   -3.6254 C.2       1 <0>         0.3883
      6 O1          7.8061   -2.9986   -4.8327 O.2       1 <0>        -0.3738
      7 N2          9.0390   -3.6891   -3.1093 N.am      1 <0>        -0.2964
      8 C5          9.2124   -3.7862   -1.7799 C.2       1 <0>         0.4099
      9 O2         10.2054   -4.3414   -1.3503 O.2       1 <0>        -0.3842
     10 C6         10.0465   -4.2524   -4.0114 C.3       1 <0>        -0.0538
     11 N3          5.7832   -1.8724   -2.9340 N.pl3     1 <0>        -0.1398
     12 C7          5.3013   -1.5966   -1.6932 C.2       1 <0>         0.2036
     13 N4          6.1352   -2.0636   -0.7862 N.2       1 <0>        -0.2586
     14 N5          4.1233   -0.9376   -1.4260 N.pl3     1 <0>        -0.3502
     15 C8          3.7112   -0.7071   -0.0392 C.3       1 <0>         0.0572
     16 C9          2.3960    0.0285   -0.0217 C.ar      1 <0>        -0.1191
     17 C10         1.2084   -0.6789   -0.0136 C.ar      1 <0>        -0.1083
     18 C11         0.0021   -0.0041    0.0020 C.ar      1 <0>        -0.1300
     19 C12        -0.0167    1.3781    0.0096 C.ar      1 <0>        -0.1149
     20 C13         1.1709    2.0855    0.0021 C.ar      1 <0>        -0.1306
     21 C14         2.3773    1.4107   -0.0141 C.ar      1 <0>        -0.1093
     22 C15         5.1549   -1.5287   -4.2120 C.3       1 <0>        -0.0123
     23 C16         5.6397   -0.1498   -4.6642 C.3       1 <0>        -0.0207
     24 O3          5.0268    0.1854   -5.9108 O.3       1 <0>        -0.3520
     25 H1          8.0933   -4.3375    0.8874 H         1 <0>         0.0846
     26 H2          9.6106   -3.4202    0.7306 H         1 <0>         0.1100
     27 H3          8.0816   -2.5645    1.0443 H         1 <0>         0.1019
     28 H4         10.7982   -3.4952   -4.2347 H         1 <0>         0.0856
     29 H5         10.5237   -5.1083   -3.5340 H         1 <0>         0.1095
     30 H6          9.5674   -4.5727   -4.9365 H         1 <0>         0.1093
     31 H7          3.5657   -0.6257   -2.1559 H         1 <0>         0.2444
     32 H8          4.4679   -0.1107    0.4703 H         1 <0>         0.0995
     33 H9          3.5990   -1.6641    0.4703 H         1 <0>         0.1006
     34 H10         1.2231   -1.7587   -0.0199 H         1 <0>         0.1361
     35 H11        -0.9258   -0.5567    0.0079 H         1 <0>         0.1345
     36 H12        -0.9592    1.9054    0.0170 H         1 <0>         0.1332
     37 H13         1.1563    3.1654    0.0077 H         1 <0>         0.1339
     38 H14         3.3051    1.9634   -0.0207 H         1 <0>         0.1348
     39 H15         5.4252   -2.2726   -4.9614 H         1 <0>         0.1476
     40 H16         4.0717   -1.5115   -4.0914 H         1 <0>         0.1008
     41 H17         5.3693    0.5941   -3.9148 H         1 <0>         0.0578
     42 H18         6.7228   -0.1670   -4.7848 H         1 <0>         0.0874
     43 H19         5.2890    1.0489   -6.2584 H         1 <0>         0.2204
@<TRIPOS>BOND
     1    1    2 1
     2    1   25 1
     3    1   26 1
     4    1   27 1
     5    2    8 am
     6    2    3 1
     7    3   13 1
     8    3    4 2
     9    4    5 1
    10    4   11 1
    11    5    6 2
    12    5    7 am
    13    7    8 am
    14    7   10 1
    15    8    9 2
    16   10   28 1
    17   10   29 1
    18   10   30 1
    19   11   12 1
    20   11   22 1
    21   12   13 2
    22   12   14 1
    23   14   15 1
    24   14   31 1
    25   15   16 1
    26   15   32 1
    27   15   33 1
    28   16   21 ar
    29   16   17 ar
    30   17   18 ar
    31   17   34 1
    32   18   19 ar
    33   18   35 1
    34   19   20 ar
    35   19   36 1
    36   20   21 ar
    37   20   37 1
    38   21   38 1
    39   22   23 1
    40   22   39 1
    41   22   40 1
    42   23   24 1
    43   23   41 1
    44   23   42 1
    45   24   43 1
@<TRIPOS>MOLECULE
ZINC00087451
   44    46     0     0     0
SMALL
USER_CHARGES

@<TRIPOS>ATOM
      1 C1          8.5393   -3.4095    0.5298 C.3       1 <0>        -0.0696
      2 N1          8.3140   -3.2834   -0.9123 N.am      1 <0>        -0.2443
      3 C2          7.1765   -2.6468   -1.3821 C.2       1 <0>         0.1291
      4 C3          6.9871   -2.5408   -2.7558 C.2       1 <0>        -0.1797
      5 C4          7.9513   -3.0803   -3.6254 C.2       1 <0>         0.3755
      6 O1          7.8061   -2.9986   -4.8327 O.2       1 <0>        -0.3080
      7 N2          9.0390   -3.6891   -3.1093 N.am      1 <0>        -0.2845
      8 C5          9.2124   -3.7862   -1.7799 C.2       1 <0>         0.4076
      9 O2         10.2054   -4.3414   -1.3503 O.2       1 <0>        -0.3143
     10 C6         10.0465   -4.2524   -4.0114 C.3       1 <0>        -0.0604
     11 N3          5.7832   -1.8724   -2.9340 N.pl3     1 <0>        -0.0927
     12 C7          5.3013   -1.5966   -1.6932 C.cat     1 <0>         0.2556
     13 N4          4.1233   -0.9376   -1.4260 N.pl3     1 <0>        -0.3176
     14 C8          3.7112   -0.7071   -0.0392 C.3       1 <0>         0.0279
     15 C9          2.3960    0.0285   -0.0217 C.ar      1 <0>        -0.1489
     16 C10         1.2084   -0.6789   -0.0136 C.ar      1 <0>        -0.1012
     17 C11         0.0021   -0.0041    0.0020 C.ar      1 <0>        -0.1185
     18 C12        -0.0167    1.3781    0.0096 C.ar      1 <0>        -0.0869
     19 C13         1.1709    2.0855    0.0021 C.ar      1 <0>        -0.1192
     20 C14         2.3773    1.4107   -0.0141 C.ar      1 <0>        -0.1023
     21 C15         5.1549   -1.5287   -4.2120 C.3       1 <0>        -0.0213
     22 C16         5.6397   -0.1498   -4.6642 C.3       1 <0>        -0.0165
     23 O3          5.0268    0.1854   -5.9108 O.3       1 <0>        -0.3371
     24 H1          8.0933   -4.3375    0.8874 H         1 <0>         0.1079
     25 H2          9.6106   -3.4202    0.7306 H         1 <0>         0.1508
     26 H3          8.0816   -2.5645    1.0443 H         1 <0>         0.0783
     27 H4         10.7982   -3.4952   -4.2347 H         1 <0>         0.1053
     28 H5         10.5237   -5.1083   -3.5340 H         1 <0>         0.1268
     29 H6          9.5674   -4.5727   -4.9365 H         1 <0>         0.1245
     30 H7          3.5657   -0.6257   -2.1559 H         1 <0>         0.2811
     31 H8          4.4679   -0.1107    0.4703 H         1 <0>         0.0985
     32 H9          3.5990   -1.6641    0.4703 H         1 <0>         0.0995
     33 H10         1.2231   -1.7587   -0.0199 H         1 <0>         0.1348
     34 H11        -0.9258   -0.5567    0.0079 H         1 <0>         0.1513
     35 H12        -0.9592    1.9054    0.0170 H         1 <0>         0.1522
     36 H13         1.1563    3.1654    0.0077 H         1 <0>         0.1507
     37 H14         3.3051    1.9634   -0.0207 H         1 <0>         0.1335
     38 H15         5.4252   -2.2726   -4.9614 H         1 <0>         0.1754
     39 H16         4.0717   -1.5115   -4.0914 H         1 <0>         0.1226
     40 H17         5.3693    0.5941   -3.9148 H         1 <0>         0.0584
     41 H18         6.7228   -0.1670   -4.7848 H         1 <0>         0.0926
     42 H19         5.2890    1.0489   -6.2584 H         1 <0>         0.2429
     43 N5          6.1348   -2.0634   -0.7831 N.pl3     1 <0>        -0.1691
     44 H20         6.0026   -1.9893    0.2324 H         1 <0>         0.3092
@<TRIPOS>BOND
     1    1    2 1
     2    1   24 1
     3    1   25 1
     4    1   26 1
     5    2    8 am
     6    2    3 1
     7    3    4 2
     8    3   43 1
     9    4    5 1
    10    4   11 1
    11    5    6 2
    12    5    7 am
    13    7    8 am
    14    7   10 1
    15    8    9 2
    16   10   27 1
    17   10   28 1
    18   10   29 1
    19   11   12 1
    20   11   21 1
    21   12   13 1
    22   12   43 2
    23   13   14 1
    24   13   30 1
    25   14   15 1
    26   14   31 1
    27   14   32 1
    28   15   20 ar
    29   15   16 ar
    30   16   17 ar
    31   16   33 1
    32   17   18 ar
    33   17   34 1
    34   18   19 ar
    35   18   35 1
    36   19   20 ar
    37   19   36 1
    38   20   37 1
    39   21   22 1
    40   21   38 1
    41   21   39 1
    42   22   23 1
    43   22   40 1
    44   22   41 1
    45   23   42 1
    46   43   44 1
@<TRIPOS>MOLECULE
ZINC00088067
   40    43     0     0     0
SMALL
USER_CHARGES

@<TRIPOS>ATOM
      1 C1         -0.9262    5.0105   -3.7309 C.3       1 <0>        -0.1779
      2 C2         -1.4250    3.9431   -2.7912 C.ar      1 <0>        -0.0631
      3 C3         -0.6996    2.7778   -2.6233 C.ar      1 <0>        -0.1189
      4 C4         -1.1541    1.7977   -1.7629 C.ar      1 <0>        -0.1044
      5 C5         -2.3438    1.9806   -1.0709 C.ar      1 <0>         0.0372
      6 C6         -3.0670    3.1542   -1.2372 C.ar      1 <0>        -0.1254
      7 C7         -2.6073    4.1306   -2.0991 C.ar      1 <0>        -0.1150
      8 N1         -2.8108    0.9853   -0.2019 N.pl3     1 <0>        -0.1296
      9 C8         -3.3506    1.1543    1.0405 C.2       1 <0>         0.0319
     10 N2         -3.6522   -0.0465    1.4927 N.2       1 <0>        -0.1339
     11 N3         -3.3334   -0.9444    0.6323 N.2       1 <0>        -0.0089
     12 N4         -2.8192   -0.4039   -0.4185 N.2       1 <0>        -0.0413
     13 C9         -3.5599    2.4369    1.7420 C.ar      1 <0>        -0.2199
     14 C10        -2.5348    3.3832    1.8298 C.ar      1 <0>         0.0702
     15 N5         -2.7629    4.5210    2.4608 N.ar      1 <0>        -0.2749
     16 C11        -3.9400    4.7720    3.0184 C.ar      1 <0>         0.2420
     17 N6         -4.9401    3.9062    2.9673 N.ar      1 <0>        -0.2586
     18 C12        -4.7977    2.7384    2.3466 C.ar      1 <0>         0.1767
     19 C13        -5.9186    1.7729    2.2911 C.ar      1 <0>        -0.0853
     20 C14        -6.2992    1.2104    1.0726 C.ar      1 <0>        -0.0715
     21 C15        -7.3411    0.3077    1.0279 C.ar      1 <0>        -0.1412
     22 C16        -8.0165   -0.0339    2.1867 C.ar      1 <0>        -0.0825
     23 C17        -7.6495    0.5226    3.3977 C.ar      1 <0>        -0.1715
     24 C18        -6.6036    1.4253    3.4578 C.ar      1 <0>         0.1486
     25 F1         -6.2451    1.9690    4.6415 F         1 <0>        -0.0918
     26 N7         -4.1281    5.9748    3.6737 N.pl3     1 <0>        -0.3637
     27 H1         -1.3270    4.8323   -4.7287 H         1 <0>         0.0928
     28 H2         -1.2538    5.9880   -3.3769 H         1 <0>         0.0863
     29 H3          0.1628    4.9832   -3.7665 H         1 <0>         0.0867
     30 H4          0.2235    2.6342   -3.1653 H         1 <0>         0.1429
     31 H5         -0.5869    0.8880   -1.6319 H         1 <0>         0.1547
     32 H6         -3.9905    3.3013   -0.6969 H         1 <0>         0.1440
     33 H7         -3.1717    5.0418   -2.2323 H         1 <0>         0.1425
     34 H8         -1.5706    3.1885    1.3838 H         1 <0>         0.1762
     35 H9         -5.7767    1.4787    0.1663 H         1 <0>         0.1339
     36 H10        -7.6338   -0.1305    0.0851 H         1 <0>         0.1389
     37 H11        -8.8342   -0.7382    2.1445 H         1 <0>         0.1379
     38 H12        -8.1807    0.2522    4.2983 H         1 <0>         0.1482
     39 H13        -4.9828    6.1735    4.0870 H         1 <0>         0.2448
     40 H14        -3.4053    6.6200    3.7201 H         1 <0>         0.2428
@<TRIPOS>BOND
     1    1    2 1
     2    1   27 1
     3    1   28 1
     4    1   29 1
     5    2    7 ar
     6    2    3 ar
     7    3    4 ar
     8    3   30 1
     9    4    5 ar
    10    4   31 1
    11    5    6 ar
    12    5    8 1
    13    6    7 ar
    14    6   32 1
    15    7   33 1
    16    8   12 1
    17    8    9 1
    18    9   10 2
    19    9   13 1
    20   10   11 1
    21   11   12 2
    22   13   18 ar
    23   13   14 ar
    24   14   15 ar
    25   14   34 1
    26   15   16 ar
    27   16   17 ar
    28   16   26 1
    29   17   18 ar
    30   18   19 1
    31   19   24 ar
    32   19   20 ar
    33   20   21 ar
    34   20   35 1
    35   21   22 ar
    36   21   36 1
    37   22   23 ar
    38   22   37 1
    39   23   24 ar
    40   23   38 1
    41   24   25 1
    42   26   39 1
    43   26   40 1
@<TRIPOS>MOLECULE
ZINC00090175
   41    43     0     0     0
SMALL
USER_CHARGES

@<TRIPOS>ATOM
      1 C1         -8.4712   11.7384   -0.7007 C.3       1 <0>        -0.2155
      2 C2         -8.6823   10.2262   -0.6018 C.3       1 <0>        -0.0037
      3 O1         -7.3941    9.5626   -0.5103 O.3       1 <0>        -0.2690
      4 C3         -7.4036    8.2185   -0.4161 C.2       1 <0>         0.3526
      5 O2         -8.4596    7.6173   -0.4107 O.2       1 <0>        -0.3652
      6 C4         -6.1326    7.4770   -0.3197 C.ar      1 <0>        -0.1317
      7 C5         -6.1407    6.0824   -0.2220 C.ar      1 <0>        -0.0446
      8 C6         -4.9526    5.3934   -0.1326 C.ar      1 <0>        -0.1784
      9 C7         -3.7439    6.0835   -0.1399 C.ar      1 <0>         0.0914
     10 C8         -3.7324    7.4723   -0.2317 C.ar      1 <0>        -0.1497
     11 C9         -4.9167    8.1672   -0.3263 C.ar      1 <0>        -0.0584
     12 N1         -2.5433    5.3832   -0.0493 N.am      1 <0>        -0.3172
     13 C10        -1.4811    5.9432    0.5627 C.2       1 <0>         0.3492
     14 O3         -1.6069    6.9961    1.1555 O.2       1 <0>        -0.3434
     15 C11        -0.1589    5.2742    0.5124 C.2       1 <0>        -0.0422
     16 C12        -0.0252    4.0330   -0.0415 C.2       1 <0>        -0.1787
     17 C13         1.2909    3.3995   -0.0758 C.2       1 <0>         0.3297
     18 O4          1.4111    2.2924   -0.5697 O.2       1 <0>        -0.3577
     19 N2          2.3714    4.0201    0.4290 N.am      1 <0>        -0.2778
     20 H1          3.2604    3.5638    0.3918 H         1 <0>         0.2572
     21 C14         2.2785    5.2727    0.9968 C.ar      1 <0>         0.0952
     22 C15         1.0380    5.9323    1.0584 C.ar      1 <0>        -0.1030
     23 C16         0.9531    7.2027    1.6351 C.ar      1 <0>        -0.0666
     24 C17         2.0749    7.7953    2.1419 C.ar      1 <0>        -0.1660
     25 C18         3.3026    7.1507    2.0788 C.ar      1 <0>        -0.0713
     26 C19         3.4098    5.8983    1.5144 C.ar      1 <0>        -0.1880
     27 H2         -9.4383   12.2365   -0.7695 H         1 <0>         0.0894
     28 H3         -7.9434   12.0903    0.1857 H         1 <0>         0.0864
     29 H4         -7.8816   11.9656   -1.5889 H         1 <0>         0.0857
     30 H5         -9.2101    9.8743   -1.4882 H         1 <0>         0.0892
     31 H6         -9.2720    9.9990    0.2863 H         1 <0>         0.0899
     32 H7         -7.0782    5.5462   -0.2170 H         1 <0>         0.1591
     33 H8         -4.9581    4.3161   -0.0571 H         1 <0>         0.1384
     34 H9         -2.7929    8.0050   -0.2326 H         1 <0>         0.1630
     35 H10        -4.9069    9.2444   -0.4020 H         1 <0>         0.1538
     36 H11        -2.4718    4.4925   -0.4266 H         1 <0>         0.2409
     37 H12        -0.8853    3.5237   -0.4504 H         1 <0>         0.1566
     38 H13         0.0023    7.7126    1.6839 H         1 <0>         0.1887
     39 H14         2.0067    8.7749    2.5915 H         1 <0>         0.1387
     40 H15         4.1814    7.6336    2.4799 H         1 <0>         0.1355
     41 H16         4.3686    5.4030    1.4740 H         1 <0>         0.1374
@<TRIPOS>BOND
     1    1    2 1
     2    1   27 1
     3    1   28 1
     4    1   29 1
     5    2    3 1
     6    2   30 1
     7    2   31 1
     8    3    4 1
     9    4    5 2
    10    4    6 1
    11    6   11 ar
    12    6    7 ar
    13    7    8 ar
    14    7   32 1
    15    8    9 ar
    16    8   33 1
    17    9   10 ar
    18    9   12 1
    19   10   11 ar
    20   10   34 1
    21   11   35 1
    22   12   13 am
    23   12   36 1
    24   13   14 2
    25   13   15 1
    26   15   22 1
    27   15   16 2
    28   16   17 1
    29   16   37 1
    30   17   18 2
    31   17   19 am
    32   19   20 1
    33   19   21 1
    34   21   26 ar
    35   21   22 ar
    36   22   23 ar
    37   23   24 ar
    38   23   38 1
    39   24   25 ar
    40   24   39 1
    41   25   26 ar
    42   25   40 1
    43   26   41 1
@<TRIPOS>MOLECULE
ZINC00090736
   38    40     0     0     0
SMALL
USER_CHARGES

@<TRIPOS>ATOM
      1 C1         -5.3722    7.0748    0.5184 C.3       1 <0>        -0.1758
      2 C2         -4.1894    6.1415    0.4857 C.ar      1 <0>        -0.0676
      3 C3         -4.3867    4.7856    0.2955 C.ar      1 <0>        -0.1356
      4 C4         -3.3073    3.9262    0.2647 C.ar      1 <0>        -0.0884
      5 C5         -2.0165    4.4268    0.4262 C.ar      1 <0>        -0.0256
      6 C6         -1.8242    5.7932    0.6238 C.ar      1 <0>        -0.1114
      7 C7         -2.9106    6.6440    0.6466 C.ar      1 <0>        -0.1318
      8 C8         -0.8525    3.5084    0.3940 C.2       1 <0>         0.0197
      9 C9          0.4147    3.9940    0.5519 C.2       1 <0>        -0.3657
     10 S1          1.3677    2.4865    0.4275 S.3       1 <0>         0.2757
     11 C10        -0.0062    1.3707    0.1798 C.2       1 <0>        -0.0134
     12 N1         -1.0309    2.2031    0.2053 N.2       1 <0>        -0.2470
     13 N2          0.0021   -0.0041    0.0020 N.pl3     1 <0>        -0.2503
     14 C11         1.2161   -0.6858   -0.1182 C.ar      1 <0>         0.1323
     15 C12         2.2997   -0.0743   -0.7361 C.ar      1 <0>        -0.1982
     16 C13         3.4994   -0.7490   -0.8490 C.ar      1 <0>         0.0106
     17 C14         3.6196   -2.0359   -0.3571 C.ar      1 <0>        -0.7894
     18 C15         2.5414   -2.6496    0.2539 C.ar      1 <0>         0.0004
     19 C16         1.3404   -1.9786    0.3748 C.ar      1 <0>        -0.1892
     20 S2          5.1503   -2.8954   -0.5087 S.o2      1 <0>         2.7637
     21 O1          6.1619   -1.9050   -0.6301 O.2       1 <0>        -0.9173
     22 O2          5.1667   -3.8795    0.5163 O.2       1 <0>        -0.9134
     23 N3          5.1125   -3.7124   -1.9487 N.pl3     1 <0>        -0.9287
     24 H1         -5.7331    7.1683    1.5426 H         1 <0>         0.0870
     25 H2         -5.0718    8.0551    0.1481 H         1 <0>         0.0815
     26 H3         -6.1670    6.6763   -0.1120 H         1 <0>         0.0821
     27 H4         -5.3873    4.3989    0.1704 H         1 <0>         0.1315
     28 H5         -3.4625    2.8678    0.1161 H         1 <0>         0.1504
     29 H6         -0.8266    6.1860    0.7540 H         1 <0>         0.1283
     30 H7         -2.7625    7.7034    0.7948 H         1 <0>         0.1311
     31 H8          0.7487    5.0091    0.7083 H         1 <0>         0.1995
     32 H9         -0.8348   -0.4929   -0.0390 H         1 <0>         0.2626
     33 H10         2.2053    0.9292   -1.1241 H         1 <0>         0.1582
     34 H11         4.3434   -0.2727   -1.3256 H         1 <0>         0.1589
     35 H12         2.6388   -3.6545    0.6373 H         1 <0>         0.1567
     36 H13         0.4989   -2.4583    0.8524 H         1 <0>         0.1438
     37 H14         5.9360   -3.8791   -2.4334 H         1 <0>         0.2447
     38 H15         4.2669   -4.0242   -2.3073 H         1 <0>         0.2303
@<TRIPOS>BOND
     1    1    2 1
     2    1   24 1
     3    1   25 1
     4    1   26 1
     5    2    7 ar
     6    2    3 ar
     7    3    4 ar
     8    3   27 1
     9    4    5 ar
    10    4   28 1
    11    5    6 ar
    12    5    8 1
    13    6    7 ar
    14    6   29 1
    15    7   30 1
    16    8   12 1
    17    8    9 2
    18    9   10 1
    19    9   31 1
    20   10   11 1
    21   11   12 2
    22   11   13 1
    23   13   14 1
    24   13   32 1
    25   14   19 ar
    26   14   15 ar
    27   15   16 ar
    28   15   33 1
    29   16   17 ar
    30   16   34 1
    31   17   18 ar
    32   17   20 1
    33   18   19 ar
    34   18   35 1
    35   19   36 1
    36   20   21 2
    37   20   22 2
    38   20   23 1
    39   23   37 1
    40   23   38 1
@<TRIPOS>MOLECULE
ZINC00091356
   41    43     0     0     0
SMALL
USER_CHARGES

@<TRIPOS>ATOM
      1 C1          3.3599    2.1510    1.2281 C.3       1 <0>        -0.1821
      2 C2          2.2320    1.3950    0.5743 C.ar      1 <0>        -0.0742
      3 C3          2.2457    0.0139    0.5538 C.ar      1 <0>        -0.1162
      4 C4          1.2115   -0.6803   -0.0462 C.ar      1 <0>        -0.0879
      5 C5          0.1604    0.0050   -0.6276 C.ar      1 <0>        -0.0968
      6 C6          0.1410    1.3857   -0.6110 C.ar      1 <0>        -0.0806
      7 C7          1.1784    2.0861   -0.0090 C.ar      1 <0>         0.0609
      8 N1          1.1620    3.4851    0.0092 N.am      1 <0>        -0.3214
      9 C8         -0.0091    4.1465   -0.0782 C.2       1 <0>         0.3121
     10 O1         -1.0547    3.5318   -0.0717 O.2       1 <0>        -0.3509
     11 C9         -0.0194    5.6498   -0.1841 C.3       1 <0>        -0.2083
     12 C10        -1.4645    6.1451   -0.2695 C.3       1 <0>         0.0533
     13 H1         -2.0308    5.7661    0.5813 H         1 <0>         0.1498
     14 C11        -1.4826    7.6527   -0.2562 C.2       1 <0>         0.2954
     15 O2         -1.5734    8.2422    0.7999 O.2       1 <0>        -0.3507
     16 N2         -1.3995    8.3495   -1.4065 N.am      1 <0>        -0.3036
     17 C12        -1.4369    7.6995   -2.6454 C.ar      1 <0>         0.0069
     18 C13        -1.1394    8.3865   -3.8117 C.ar      1 <0>        -0.1377
     19 C14        -1.1597    7.7243   -5.0255 C.ar      1 <0>        -0.1399
     20 C15        -1.4757    6.3792   -5.0827 C.ar      1 <0>        -0.1155
     21 C16        -1.7783    5.6863   -3.9240 C.ar      1 <0>        -0.1575
     22 C17        -1.7632    6.3442   -2.7067 C.ar      1 <0>         0.0676
     23 N3         -2.0751    5.6677   -1.5187 N.pl3     1 <0>        -0.3815
     24 N4         -0.9448   -0.7421   -1.2689 N.pl3     1 <0>         0.5504
     25 O3         -1.8706   -0.1392   -1.7816 O.2       1 <0>        -0.3500
     26 O4         -0.9283   -1.9599   -1.2840 O.3       1 <0>        -0.3586
     27 H2          4.1380    2.3515    0.4915 H         1 <0>         0.0924
     28 H3          2.9835    3.0938    1.6248 H         1 <0>         0.0830
     29 H4          3.7741    1.5543    2.0408 H         1 <0>         0.0973
     30 H5          3.0653   -0.5242    1.0067 H         1 <0>         0.1492
     31 H6          1.2244   -1.7602   -0.0605 H         1 <0>         0.1653
     32 H7         -0.6778    1.9204   -1.0694 H         1 <0>         0.2014
     33 H8          1.9934    3.9790    0.0848 H         1 <0>         0.2406
     34 H9          0.4605    6.0792    0.6953 H         1 <0>         0.1197
     35 H10         0.5227    5.9547   -1.0792 H         1 <0>         0.1203
     36 H11        -1.3125    9.3151   -1.3750 H         1 <0>         0.2451
     37 H12        -0.8922    9.4371   -3.7727 H         1 <0>         0.1336
     38 H13        -0.9272    8.2604   -5.9338 H         1 <0>         0.1338
     39 H14        -1.4859    5.8683   -6.0341 H         1 <0>         0.1349
     40 H15        -2.0258    4.6360   -3.9695 H         1 <0>         0.1433
     41 H16        -2.6761    4.9064   -1.5211 H         1 <0>         0.2570
@<TRIPOS>BOND
     1    1    2 1
     2    1   27 1
     3    1   28 1
     4    1   29 1
     5    2    7 ar
     6    2    3 ar
     7    3    4 ar
     8    3   30 1
     9    4    5 ar
    10    4   31 1
    11    5    6 ar
    12    5   24 1
    13    6    7 ar
    14    6   32 1
    15    7    8 1
    16    8    9 am
    17    8   33 1
    18    9   10 2
    19    9   11 1
    20   11   12 1
    21   11   34 1
    22   11   35 1
    23   12   13 1
    24   12   23 1
    25   12   14 1
    26   14   15 2
    27   14   16 am
    28   16   17 1
    29   16   36 1
    30   17   22 ar
    31   17   18 ar
    32   18   19 ar
    33   18   37 1
    34   19   20 ar
    35   19   38 1
    36   20   21 ar
    37   20   39 1
    38   21   22 ar
    39   21   40 1
    40   22   23 1
    41   23   41 1
    42   24   25 2
    43   24   26 1
@<TRIPOS>MOLECULE
ZINC00091359
   41    43     0     0     0
SMALL
USER_CHARGES

@<TRIPOS>ATOM
      1 C1          3.4653    3.1578   -1.0570 C.3       1 <0>        -0.1821
      2 C2          3.5209    1.7969   -0.4120 C.ar      1 <0>        -0.0743
      3 C3          4.7235    1.1235   -0.3209 C.ar      1 <0>        -0.1162
      4 C4          4.7754   -0.1248    0.2711 C.ar      1 <0>        -0.0880
      5 C5          3.6242   -0.7035    0.7738 C.ar      1 <0>        -0.0968
      6 C6          2.4197   -0.0332    0.6905 C.ar      1 <0>        -0.0810
      7 C7          2.3633    1.2187    0.0917 C.ar      1 <0>         0.0610
      8 N1          1.1435    1.8984    0.0013 N.am      1 <0>        -0.3213
      9 C8         -0.0145    1.2089    0.0119 C.2       1 <0>         0.3122
     10 O1          0.0016   -0.0038   -0.0014 O.2       1 <0>        -0.3509
     11 C9         -1.3294    1.9448    0.0340 C.3       1 <0>        -0.2083
     12 C10        -2.4789    0.9351    0.0354 C.3       1 <0>         0.0533
     13 H1         -2.3733    0.2609   -0.8145 H         1 <0>         0.1499
     14 C11        -3.7935    1.6671   -0.0616 C.2       1 <0>         0.2950
     15 O2         -4.2781    1.8882   -1.1513 O.2       1 <0>        -0.3518
     16 N2         -4.4351    2.0773    1.0476 N.am      1 <0>        -0.3025
     17 C12        -3.9712    1.7213    2.3192 C.ar      1 <0>         0.0063
     18 C13        -4.5145    2.2969    3.4566 C.ar      1 <0>        -0.1373
     19 C14        -4.0409    1.9368    4.7049 C.ar      1 <0>        -0.1400
     20 C15        -3.0309    1.0000    4.8255 C.ar      1 <0>        -0.1152
     21 C16        -2.4909    0.4107    3.6962 C.ar      1 <0>        -0.1576
     22 C17        -2.9637    0.7635    2.4444 C.ar      1 <0>         0.0677
     23 N3         -2.4516    0.1602    1.2845 N.pl3     1 <0>        -0.3820
     24 N4          3.6842   -2.0401    1.4067 N.pl3     1 <0>         0.5504
     25 O3          4.7471   -2.6298    1.4847 O.2       1 <0>        -0.3587
     26 O4          2.6708   -2.5503    1.8496 O.3       1 <0>        -0.3499
     27 H2          3.6292    3.9253   -0.3006 H         1 <0>         0.0925
     28 H3          4.2393    3.2296   -1.8211 H         1 <0>         0.0973
     29 H4          2.4872    3.3028   -1.5157 H         1 <0>         0.0830
     30 H5          5.6243    1.5729   -0.7121 H         1 <0>         0.1492
     31 H6          5.7170   -0.6491    0.3415 H         1 <0>         0.1653
     32 H7          1.5218   -0.4838    1.0869 H         1 <0>         0.2016
     33 H8          1.1314    2.8658   -0.0689 H         1 <0>         0.2406
     34 H9         -1.3859    2.5610    0.9314 H         1 <0>         0.1202
     35 H10        -1.4050    2.5802   -0.8484 H         1 <0>         0.1198
     36 H11        -5.2296    2.6275    0.9649 H         1 <0>         0.2453
     37 H12        -5.3069    3.0254    3.3682 H         1 <0>         0.1336
     38 H13        -4.4623    2.3894    5.5903 H         1 <0>         0.1339
     39 H14        -2.6625    0.7280    5.8036 H         1 <0>         0.1349
     40 H15        -1.7034   -0.3223    3.7912 H         1 <0>         0.1433
     41 H16        -2.0918   -0.7404    1.3052 H         1 <0>         0.2574
@<TRIPOS>BOND
     1    1    2 1
     2    1   27 1
     3    1   28 1
     4    1   29 1
     5    2    7 ar
     6    2    3 ar
     7    3    4 ar
     8    3   30 1
     9    4    5 ar
    10    4   31 1
    11    5    6 ar
    12    5   24 1
    13    6    7 ar
    14    6   32 1
    15    7    8 1
    16    8    9 am
    17    8   33 1
    18    9   10 2
    19    9   11 1
    20   11   12 1
    21   11   34 1
    22   11   35 1
    23   12   13 1
    24   12   23 1
    25   12   14 1
    26   14   15 2
    27   14   16 am
    28   16   17 1
    29   16   36 1
    30   17   22 ar
    31   17   18 ar
    32   18   19 ar
    33   18   37 1
    34   19   20 ar
    35   19   38 1
    36   20   21 ar
    37   20   39 1
    38   21   22 ar
    39   21   40 1
    40   22   23 1
    41   23   41 1
    42   24   25 2
    43   24   26 1
@<TRIPOS>MOLECULE
ZINC00092130
   44    46     0     0     0
SMALL
USER_CHARGES

@<TRIPOS>ATOM
      1 C1          3.3066    7.8927   -0.7368 C.3       1 <0>        -0.2064
      2 C2          3.0509    7.3721    0.6790 C.3       1 <0>        -0.1222
      3 C3          2.6222    5.9289    0.6137 C.ar      1 <0>        -0.0982
      4 C4          3.5710    4.9243    0.6642 C.ar      1 <0>        -0.1021
      5 C5          3.1814    3.6007    0.6037 C.ar      1 <0>        -0.1652
      6 C6          1.8350    3.2791    0.4925 C.ar      1 <0>         0.0792
      7 C7          0.8849    4.2905    0.4372 C.ar      1 <0>        -0.1583
      8 C8          1.2807    5.6121    0.5030 C.ar      1 <0>        -0.1020
      9 N1          1.4370    1.9391    0.4305 N.am      1 <0>        -0.2740
     10 C9          2.3629    0.8026    0.3616 C.3       1 <0>        -0.0110
     11 C10         1.5242   -0.4363    0.7466 C.3       1 <0>        -0.1596
     12 H1          1.8265   -1.3078    0.1660 H         1 <0>         0.1254
     13 C11         0.0969    0.0172    0.3615 C.3       1 <0>        -0.1962
     14 C12         0.1574    1.5274    0.4263 C.2       1 <0>         0.3130
     15 O1         -0.8083    2.2603    0.4637 O.2       1 <0>        -0.3394
     16 C13         1.6211   -0.7152    2.2244 C.2       1 <0>         0.3059
     17 O2          2.3826   -0.0709    2.9145 O.2       1 <0>        -0.3334
     18 N2          0.8617   -1.6805    2.7792 N.am      1 <0>        -0.3252
     19 C14         0.8667   -1.8640    4.1664 C.ar      1 <0>         0.0722
     20 C15         0.7375   -3.1403    4.6997 C.ar      1 <0>        -0.1707
     21 C16         0.7472   -3.3218    6.0689 C.ar      1 <0>        -0.0980
     22 C17         0.8748   -2.2340    6.9119 C.ar      1 <0>        -0.1684
     23 C18         0.9990   -0.9564    6.3849 C.ar      1 <0>         0.0906
     24 C19         0.9949   -0.7707    5.0112 C.ar      1 <0>        -0.1516
     25 O3          1.1249    0.1122    7.2151 O.3       1 <0>        -0.2860
     26 H2          3.6168    8.9366   -0.6896 H         1 <0>         0.0713
     27 H3          4.0931    7.3009   -1.2051 H         1 <0>         0.0754
     28 H4          2.3922    7.8116   -1.3244 H         1 <0>         0.0769
     29 H5          2.2645    7.9640    1.1472 H         1 <0>         0.0865
     30 H6          3.9654    7.4533    1.2666 H         1 <0>         0.0855
     31 H7          4.6180    5.1750    0.7507 H         1 <0>         0.1317
     32 H8          3.9230    2.8165    0.6424 H         1 <0>         0.1313
     33 H9         -0.1626    4.0438    0.3466 H         1 <0>         0.1799
     34 H10         0.5420    6.3990    0.4638 H         1 <0>         0.1342
     35 H11         3.1808    0.9390    1.0691 H         1 <0>         0.1329
     36 H12         2.7541    0.6937   -0.6499 H         1 <0>         0.0942
     37 H13        -0.6311   -0.3665    1.0763 H         1 <0>         0.1219
     38 H14        -0.1507   -0.3117   -0.6477 H         1 <0>         0.1238
     39 H15         0.3117   -2.2482    2.2169 H         1 <0>         0.2331
     40 H16         0.6335   -3.9915    4.0431 H         1 <0>         0.1298
     41 H17         0.6507   -4.3152    6.4816 H         1 <0>         0.1350
     42 H18         0.8776   -2.3786    7.9822 H         1 <0>         0.1409
     43 H19         1.0918    0.2229    4.5992 H         1 <0>         0.1694
     44 H20         0.2828    0.5133    7.4703 H         1 <0>         0.2284
@<TRIPOS>BOND
     1    1    2 1
     2    1   26 1
     3    1   27 1
     4    1   28 1
     5    2    3 1
     6    2   29 1
     7    2   30 1
     8    3    8 ar
     9    3    4 ar
    10    4    5 ar
    11    4   31 1
    12    5    6 ar
    13    5   32 1
    14    6    7 ar
    15    6    9 1
    16    7    8 ar
    17    7   33 1
    18    8   34 1
    19    9   14 am
    20    9   10 1
    21   10   11 1
    22   10   35 1
    23   10   36 1
    24   11   12 1
    25   11   13 1
    26   11   16 1
    27   13   14 1
    28   13   37 1
    29   13   38 1
    30   14   15 2
    31   16   17 2
    32   16   18 am
    33   18   19 1
    34   18   39 1
    35   19   24 ar
    36   19   20 ar
    37   20   21 ar
    38   20   40 1
    39   21   22 ar
    40   21   41 1
    41   22   23 ar
    42   22   42 1
    43   23   24 ar
    44   23   25 1
    45   24   43 1
    46   25   44 1
@<TRIPOS>MOLECULE
ZINC00093102
   42    45     0     0     0
SMALL
USER_CHARGES

@<TRIPOS>ATOM
      1 C1          4.4499    4.7839   -2.9770 C.3       1 <0>        -0.2372
      2 C2          3.6360    4.1628   -1.8400 C.3       1 <0>        -0.0102
      3 N1          2.2345    4.5711   -1.9630 N.pl3     1 <0>        -0.1861
      4 C3          1.2700    3.8810   -2.6753 C.ar      1 <0>         0.0539
      5 C4          1.3181    2.7070   -3.4212 C.ar      1 <0>        -0.1557
      6 C5          0.1805    2.2355   -4.0398 C.ar      1 <0>        -0.0933
      7 C6         -1.0178    2.9246   -3.9317 C.ar      1 <0>        -0.1583
      8 C7         -1.0865    4.0860   -3.1927 C.ar      1 <0>        -0.0670
      9 C8          0.0556    4.5736   -2.5623 C.ar      1 <0>        -0.0896
     10 C9          0.3255    5.7561   -1.7231 C.ar      1 <0>        -0.0889
     11 C10         1.6874    5.7007   -1.3833 C.ar      1 <0>         0.0691
     12 C11         2.2379    6.7014   -0.5852 C.ar      1 <0>        -0.1566
     13 C12         1.4620    7.7297   -0.1344 C.ar      1 <0>        -0.0727
     14 C13         0.1034    7.7949   -0.4669 C.ar      1 <0>        -0.1465
     15 C14        -0.4651    6.8030   -1.2647 C.ar      1 <0>        -0.0733
     16 C15        -0.7247    8.9104    0.0262 C.2       1 <0>        -0.0884
     17 N2         -2.0193    8.8319   -0.0295 N.2       1 <0>        -0.0036
     18 N3         -2.6457    7.5787   -0.0300 N.am      1 <0>        -0.3194
     19 C16        -3.9771    7.4909   -0.2201 C.2       1 <0>         0.4096
     20 O1         -4.6345    8.4991   -0.3910 O.2       1 <0>        -0.3274
     21 C17        -4.6390    6.1667   -0.2206 C.2       1 <0>        -0.2574
     22 C18        -6.0728    5.8472   -0.4088 C.2       1 <0>         0.0713
     23 N4         -6.0879    4.5376   -0.3150 N.2       1 <0>        -0.1462
     24 O2         -4.9654    4.1347   -0.1198 O.3       1 <0>         0.1303
     25 N5         -4.1006    4.9769   -0.0599 N.2       1 <0>        -0.0227
     26 N6         -7.1340    6.7143   -0.6293 N.pl3     1 <0>        -0.3645
     27 H1          4.0550    4.4437   -3.9343 H         1 <0>         0.0896
     28 H2          4.3818    5.8703   -2.9212 H         1 <0>         0.0880
     29 H3          5.4927    4.4800   -2.8854 H         1 <0>         0.0844
     30 H4          4.0309    4.5029   -0.8826 H         1 <0>         0.0979
     31 H5          3.7042    3.0763   -1.8957 H         1 <0>         0.1003
     32 H6          2.2476    2.1653   -3.5156 H         1 <0>         0.1288
     33 H7          0.2237    1.3240   -4.6174 H         1 <0>         0.1331
     34 H8         -1.9016    2.5478   -4.4251 H         1 <0>         0.1342
     35 H9         -2.0220    4.6187   -3.1066 H         1 <0>         0.1335
     36 H10         3.2844    6.6627   -0.3212 H         1 <0>         0.1321
     37 H11         1.8996    8.4996    0.4838 H         1 <0>         0.1355
     38 H12        -1.5125    6.8476   -1.5242 H         1 <0>         0.1502
     39 H13        -0.2543    9.7930    0.4338 H         1 <0>         0.1834
     40 H14        -2.1211    6.7742    0.1063 H         1 <0>         0.2393
     41 H15        -6.9773    7.6704   -0.6766 H         1 <0>         0.2610
     42 H16        -8.0323    6.3642   -0.7361 H         1 <0>         0.2396
@<TRIPOS>BOND
     1    1    2 1
     2    1   27 1
     3    1   28 1
     4    1   29 1
     5    2    3 1
     6    2   30 1
     7    2   31 1
     8    3   11 1
     9    3    4 1
    10    4    9 ar
    11    4    5 ar
    12    5    6 ar
    13    5   32 1
    14    6    7 ar
    15    6   33 1
    16    7    8 ar
    17    7   34 1
    18    8    9 ar
    19    8   35 1
    20    9   10 1
    21   10   15 ar
    22   10   11 ar
    23   11   12 ar
    24   12   13 ar
    25   12   36 1
    26   13   14 ar
    27   13   37 1
    28   14   15 ar
    29   14   16 1
    30   15   38 1
    31   16   17 2
    32   16   39 1
    33   17   18 1
    34   18   19 am
    35   18   40 1
    36   19   20 2
    37   19   21 1
    38   21   25 2
    39   21   22 1
    40   22   23 2
    41   22   26 1
    42   23   24 1
    43   24   25 1
    44   26   41 1
    45   26   42 1
@<TRIPOS>MOLECULE
ZINC00099178
   40    42     0     0     0
SMALL
USER_CHARGES

@<TRIPOS>ATOM
      1 C1         -7.2668   -3.0115   -8.0132 C.3       1 <0>        -0.2538
      2 C2         -7.8492   -2.2037   -6.8821 C.2       1 <0>         0.2653
      3 O1         -8.8789   -1.5843   -7.0467 O.2       1 <0>        -0.2872
      4 C3         -7.1696   -2.1663   -5.5802 C.ar      1 <0>        -0.1502
      5 C4         -7.7676   -1.5154   -4.4942 C.ar      1 <0>        -0.0609
      6 C5         -7.1274   -1.4835   -3.2766 C.ar      1 <0>        -0.1235
      7 C6         -5.8878   -2.0967   -3.1235 C.ar      1 <0>         0.0656
      8 C7         -5.2870   -2.7398   -4.2012 C.ar      1 <0>        -0.1201
      9 C8         -5.9221   -2.7820   -5.4212 C.ar      1 <0>        -0.0848
     10 N1         -5.2418   -2.0615   -1.8854 N.am      1 <0>        -0.2694
     11 C9         -5.0184   -3.1600   -1.1534 C.2       1 <0>         0.3148
     12 O2         -5.3391   -4.2873   -1.4629 O.2       1 <0>        -0.2910
     13 C10        -4.3025   -2.7713    0.1218 C.3       1 <0>        -0.1808
     14 C11        -4.1494   -1.2416   -0.0015 C.3       1 <0>        -0.2638
     15 H1         -4.6734   -0.7369    0.8102 H         1 <0>         0.1501
     16 C12        -4.7948   -0.9267   -1.3334 C.2       1 <0>         0.3151
     17 O3         -4.8921    0.1780   -1.8228 O.2       1 <0>        -0.2809
     18 S1         -2.3966   -0.7745   -0.0152 S.3       1 <0>         0.1772
     19 C13        -2.4249    0.9873   -0.0105 C.ar      1 <0>        -0.2817
     20 C14        -3.6361    1.6636    0.0019 C.ar      1 <0>        -0.0704
     21 C15        -3.6557    3.0460    0.0060 C.ar      1 <0>        -0.1697
     22 C16        -2.4707    3.7583   -0.0018 C.ar      1 <0>        -0.0777
     23 C17        -1.2587    3.0924   -0.0089 C.ar      1 <0>        -0.2024
     24 C18        -1.2293    1.7064   -0.0188 C.ar      1 <0>         0.1477
     25 N2         -0.0034    1.0302   -0.0314 N.pl3     1 <0>        -0.4163
     26 H2         -6.4741   -3.5240   -7.6831 H         1 <0>         0.0813
     27 H3         -8.0183   -3.7064   -8.3879 H         1 <0>         0.1097
     28 H4         -6.9581   -2.3423   -8.8163 H         1 <0>         0.1091
     29 H5         -8.7295   -1.0389   -4.6122 H         1 <0>         0.1593
     30 H6         -7.5876   -0.9813   -2.4385 H         1 <0>         0.1444
     31 H7         -4.3226   -3.2102   -4.0788 H         1 <0>         0.1454
     32 H8         -5.4570   -3.2852   -6.2560 H         1 <0>         0.1423
     33 H9         -3.3255   -3.2516    0.1749 H         1 <0>         0.1417
     34 H10        -4.9027   -3.0276    0.9948 H         1 <0>         0.1362
     35 H11        -4.5636    1.1104    0.0087 H         1 <0>         0.1381
     36 H12        -4.5994    3.5710    0.0156 H         1 <0>         0.1326
     37 H13        -2.4916    4.8381    0.0014 H         1 <0>         0.1298
     38 H14        -0.3351    3.6522   -0.0108 H         1 <0>         0.1323
     39 H15         0.0156    0.0604   -0.0344 H         1 <0>         0.2244
     40 H16         0.8269    1.5315   -0.0412 H         1 <0>         0.2222
@<TRIPOS>BOND
     1    1    2 1
     2    1   26 1
     3    1   27 1
     4    1   28 1
     5    2    3 2
     6    2    4 1
     7    4    9 ar
     8    4    5 ar
     9    5    6 ar
    10    5   29 1
    11    6    7 ar
    12    6   30 1
    13    7    8 ar
    14    7   10 1
    15    8    9 ar
    16    8   31 1
    17    9   32 1
    18   10   16 am
    19   10   11 am
    20   11   12 2
    21   11   13 1
    22   13   14 1
    23   13   33 1
    24   13   34 1
    25   14   15 1
    26   14   16 1
    27   14   18 1
    28   16   17 2
    29   18   19 1
    30   19   24 ar
    31   19   20 ar
    32   20   21 ar
    33   20   35 1
    34   21   22 ar
    35   21   36 1
    36   22   23 ar
    37   22   37 1
    38   23   24 ar
    39   23   38 1
    40   24   25 1
    41   25   39 1
    42   25   40 1
@<TRIPOS>MOLECULE
ZINC00099180
   40    42     0     0     0
SMALL
USER_CHARGES

@<TRIPOS>ATOM
      1 C1         -4.5980    2.6170    8.2014 C.3       1 <0>        -0.2538
      2 C2         -5.3895    3.0078    6.9800 C.2       1 <0>         0.2653
      3 O1         -6.3158    3.7843    7.0806 O.2       1 <0>        -0.2873
      4 C3         -5.0391    2.4484    5.6676 C.ar      1 <0>        -0.1503
      5 C4         -5.6938    2.8986    4.5147 C.ar      1 <0>        -0.0614
      6 C5         -5.3624    2.3713    3.2877 C.ar      1 <0>        -0.1235
      7 C6         -4.3782    1.3926    3.1915 C.ar      1 <0>         0.0642
      8 C7         -3.7285    0.9383    4.3348 C.ar      1 <0>        -0.1203
      9 C8         -4.0496    1.4630    5.5657 C.ar      1 <0>        -0.0851
     10 N1         -4.0453    0.8603    1.9435 N.am      1 <0>        -0.2693
     11 C9         -4.9001    0.1313    1.2154 C.2       1 <0>         0.3142
     12 O2         -6.0345   -0.1496    1.5374 O.2       1 <0>        -0.2890
     13 C10        -4.2260   -0.2861   -0.0734 C.3       1 <0>        -0.1807
     14 C11        -2.8186    0.3348    0.0372 C.3       1 <0>        -0.2637
     15 H1         -2.6494    1.0480   -0.7695 H         1 <0>         0.1504
     16 C12        -2.8453    1.0376    1.3770 C.2       1 <0>         0.3154
     17 O3         -1.9258    1.6620    1.8608 O.2       1 <0>        -0.2829
     18 S1         -1.5470   -0.9589    0.0203 S.3       1 <0>         0.1769
     19 C13        -0.0291   -0.0644    0.0043 C.ar      1 <0>        -0.2828
     20 C14        -0.0389    1.3229    0.0069 C.ar      1 <0>        -0.0702
     21 C15         1.1534    2.0225   -0.0052 C.ar      1 <0>        -0.1698
     22 C16         2.3579    1.3437   -0.0199 C.ar      1 <0>        -0.0779
     23 C17         2.3773   -0.0390   -0.0225 C.ar      1 <0>        -0.2027
     24 C18         1.1865   -0.7491   -0.0105 C.ar      1 <0>         0.1474
     25 N2          1.2038   -2.1490   -0.0127 N.pl3     1 <0>        -0.4163
     26 H2         -3.8242    2.0454    7.9283 H         1 <0>         0.0815
     27 H3         -4.2293    3.5145    8.6980 H         1 <0>         0.1097
     28 H4         -5.2377    2.0598    8.8859 H         1 <0>         0.1089
     29 H5         -6.4575    3.6588    4.5884 H         1 <0>         0.1593
     30 H6         -5.8669    2.7179    2.3979 H         1 <0>         0.1448
     31 H7         -2.9680    0.1755    4.2556 H         1 <0>         0.1476
     32 H8         -3.5418    1.1126    6.4522 H         1 <0>         0.1425
     33 H9         -4.7580    0.1203   -0.9336 H         1 <0>         0.1358
     34 H10        -4.1622   -1.3722   -0.1387 H         1 <0>         0.1424
     35 H11        -0.9780    1.8563    0.0138 H         1 <0>         0.1388
     36 H12         1.1440    3.1024   -0.0035 H         1 <0>         0.1329
     37 H13         3.2865    1.8951   -0.0296 H         1 <0>         0.1298
     38 H14         3.3200   -0.5659   -0.0344 H         1 <0>         0.1323
     39 H15         0.3699   -2.6444   -0.0039 H         1 <0>         0.2246
     40 H16         2.0497   -2.6236   -0.0230 H         1 <0>         0.2222
@<TRIPOS>BOND
     1    1    2 1
     2    1   26 1
     3    1   27 1
     4    1   28 1
     5    2    3 2
     6    2    4 1
     7    4    9 ar
     8    4    5 ar
     9    5    6 ar
    10    5   29 1
    11    6    7 ar
    12    6   30 1
    13    7    8 ar
    14    7   10 1
    15    8    9 ar
    16    8   31 1
    17    9   32 1
    18   10   16 am
    19   10   11 am
    20   11   12 2
    21   11   13 1
    22   13   14 1
    23   13   33 1
    24   13   34 1
    25   14   15 1
    26   14   16 1
    27   14   18 1
    28   16   17 2
    29   18   19 1
    30   19   24 ar
    31   19   20 ar
    32   20   21 ar
    33   20   35 1
    34   21   22 ar
    35   21   36 1
    36   22   23 ar
    37   22   37 1
    38   23   24 ar
    39   23   38 1
    40   24   25 1
    41   25   39 1
    42   25   40 1
@<TRIPOS>MOLECULE
ZINC00103368
   39    40     0     0     0
SMALL
USER_CHARGES

@<TRIPOS>ATOM
      1 C1         -7.8035   -2.5166    2.9591 C.3       1 <0>        -0.2362
      2 C2         -6.6709   -3.1544    2.1965 C.2       1 <0>         0.3016
      3 O1         -6.5114   -4.3559    2.2399 O.2       1 <0>        -0.3585
      4 N1         -5.8353   -2.3896    1.4662 N.am      1 <0>        -0.3265
      5 C3         -4.7279   -2.9682    0.8364 C.ar      1 <0>         0.0778
      6 C4         -4.8178   -4.2520    0.3125 C.ar      1 <0>        -0.1377
      7 C5         -3.7251   -4.8237   -0.3099 C.ar      1 <0>        -0.0963
      8 C6         -2.5396   -4.1215   -0.4137 C.ar      1 <0>        -0.1756
      9 C7         -2.4430   -2.8378    0.1084 C.ar      1 <0>         0.0736
     10 C8         -3.5373   -2.2628    0.7393 C.ar      1 <0>        -0.1591
     11 N2         -1.2427   -2.1278    0.0034 N.am      1 <0>        -0.3211
     12 C9         -1.2628   -0.7883   -0.1439 C.2       1 <0>         0.3536
     13 O2         -2.3224   -0.2072   -0.2785 O.2       1 <0>        -0.3487
     14 C10         0.0013   -0.0268   -0.1419 C.ar      1 <0>        -0.1801
     15 C11         1.2204   -0.6928    0.0122 C.ar      1 <0>        -0.0267
     16 C12         2.3975    0.0213    0.0131 C.ar      1 <0>        -0.2421
     17 C13         2.3747    1.4029   -0.1394 C.ar      1 <0>         0.1753
     18 C14         1.1646    2.0690   -0.2925 C.ar      1 <0>        -0.1583
     19 C15        -0.0173    1.3620   -0.2945 C.ar      1 <0>         0.0259
     20 N3          1.1461    3.5402   -0.4545 N.pl3     1 <0>         0.5563
     21 O3          0.0860    4.1247   -0.5895 O.2       1 <0>        -0.3598
     22 O4          2.1908    4.1662   -0.4528 O.3       1 <0>        -0.3315
     23 O5          3.5372    2.1031   -0.1389 O.3       1 <0>        -0.1623
     24 C16         4.7445    1.3558    0.0228 C.3       1 <0>        -0.0717
     25 H1         -7.7867   -1.4384    2.8002 H         1 <0>         0.0800
     26 H2         -8.7522   -2.9211    2.6065 H         1 <0>         0.1133
     27 H3         -7.6907   -2.7290    4.0223 H         1 <0>         0.1149
     28 H4         -6.0017   -1.4381    1.3772 H         1 <0>         0.2375
     29 H5         -5.7431   -4.8033    0.3917 H         1 <0>         0.1667
     30 H6         -3.7977   -5.8216   -0.7166 H         1 <0>         0.1368
     31 H7         -1.6871   -4.5713   -0.9009 H         1 <0>         0.1275
     32 H8         -3.4633   -1.2668    1.1503 H         1 <0>         0.1587
     33 H9         -0.3958   -2.5995    0.0365 H         1 <0>         0.2314
     34 H10         1.2389   -1.7661    0.1307 H         1 <0>         0.1375
     35 H11         3.3399   -0.4926    0.1321 H         1 <0>         0.1549
     36 H12        -0.9570    1.8799   -0.4182 H         1 <0>         0.1951
     37 H13         4.7201    0.8279    0.9761 H         1 <0>         0.0732
     38 H14         4.8372    0.6349   -0.7895 H         1 <0>         0.0732
     39 H15         5.5971    2.0347    0.0051 H         1 <0>         0.1272
@<TRIPOS>BOND
     1    1    2 1
     2    1   25 1
     3    1   26 1
     4    1   27 1
     5    2    3 2
     6    2    4 am
     7    4    5 1
     8    4   28 1
     9    5   10 ar
    10    5    6 ar
    11    6    7 ar
    12    6   29 1
    13    7    8 ar
    14    7   30 1
    15    8    9 ar
    16    8   31 1
    17    9   10 ar
    18    9   11 1
    19   10   32 1
    20   11   12 am
    21   11   33 1
    22   12   13 2
    23   12   14 1
    24   14   19 ar
    25   14   15 ar
    26   15   16 ar
    27   15   34 1
    28   16   17 ar
    29   16   35 1
    30   17   18 ar
    31   17   23 1
    32   18   19 ar
    33   18   20 1
    34   19   36 1
    35   20   21 2
    36   20   22 1
    37   23   24 1
    38   24   37 1
    39   24   38 1
    40   24   39 1
@<TRIPOS>MOLECULE
ZINC00108901
   42    44     0     0     0
SMALL
USER_CHARGES

@<TRIPOS>ATOM
      1 C1          3.8204    5.4030    1.3567 C.3       1 <0>        -0.2075
      2 C2          2.5461    4.6032    1.2691 C.2       1 <0>         0.2968
      3 O1          2.0206    4.1917    2.2763 O.2       1 <0>        -0.3416
      4 O2          1.9948    4.3481    0.0719 O.3       1 <0>        -0.2053
      5 C3          0.9045    3.5358    0.0550 C.ar      1 <0>         0.0429
      6 C4         -0.2784    3.9503    0.6498 C.ar      1 <0>        -0.1085
      7 C5         -1.3860    3.1262    0.6326 C.ar      1 <0>        -0.1134
      8 C6         -1.3141    1.8796    0.0250 C.ar      1 <0>         0.0624
      9 C7         -0.1315    1.4677   -0.5752 C.ar      1 <0>        -0.1504
     10 C8          0.9752    2.2930   -0.5576 C.ar      1 <0>        -0.1102
     11 N1         -2.4354    1.0405    0.0126 N.am      1 <0>        -0.3262
     12 C9         -3.6713    1.5688   -0.0871 C.2       1 <0>         0.3133
     13 O3         -3.8088    2.7603   -0.2680 O.2       1 <0>        -0.3600
     14 C10        -4.8824    0.6792    0.0260 C.3       1 <0>        -0.2095
     15 C11        -6.1504    1.5226   -0.1215 C.3       1 <0>         0.0540
     16 H1         -6.1106    2.0802   -1.0572 H         1 <0>         0.1493
     17 C12        -7.3589    0.6211   -0.1201 C.2       1 <0>         0.2950
     18 O4         -7.7867    0.1899   -1.1700 O.2       1 <0>        -0.3525
     19 N2         -7.9683    0.2901    1.0328 N.am      1 <0>        -0.3033
     20 C13        -7.5870    0.8821    2.2423 C.ar      1 <0>         0.0073
     21 C14        -8.0613    0.3911    3.4485 C.ar      1 <0>        -0.1374
     22 C15        -7.6572    0.9733    4.6360 C.ar      1 <0>        -0.1408
     23 C16        -6.7817    2.0437    4.6272 C.ar      1 <0>        -0.1157
     24 C17        -6.3069    2.5437    3.4277 C.ar      1 <0>        -0.1588
     25 C18        -6.7104    1.9677    2.2358 C.ar      1 <0>         0.0697
     26 N3         -6.2511    2.4606    1.0061 N.pl3     1 <0>        -0.3808
     27 H2          3.6598    6.3908    0.9248 H         1 <0>         0.1081
     28 H3          4.1133    5.5064    2.4015 H         1 <0>         0.1187
     29 H4          4.6097    4.8901    0.8072 H         1 <0>         0.1075
     30 H5         -0.3328    4.9181    1.1262 H         1 <0>         0.1471
     31 H6         -2.3068    3.4492    1.0954 H         1 <0>         0.1609
     32 H7         -0.0763    0.5003   -1.0521 H         1 <0>         0.1350
     33 H8          1.8960    1.9712   -1.0212 H         1 <0>         0.1423
     34 H9         -2.3225    0.0792    0.0759 H         1 <0>         0.2345
     35 H10        -4.8541   -0.0749   -0.7605 H         1 <0>         0.1188
     36 H11        -4.8834    0.1889    0.9995 H         1 <0>         0.1185
     37 H12        -8.6811   -0.3677    1.0257 H         1 <0>         0.2446
     38 H13        -8.7449   -0.4449    3.4611 H         1 <0>         0.1333
     39 H14        -8.0272    0.5898    5.5753 H         1 <0>         0.1332
     40 H15        -6.4683    2.4908    5.5589 H         1 <0>         0.1336
     41 H16        -5.6237    3.3801    3.4216 H         1 <0>         0.1403
     42 H17        -6.0067    3.3935    0.9024 H         1 <0>         0.2546
@<TRIPOS>BOND
     1    1    2 1
     2    1   27 1
     3    1   28 1
     4    1   29 1
     5    2    3 2
     6    2    4 1
     7    4    5 1
     8    5   10 ar
     9    5    6 ar
    10    6    7 ar
    11    6   30 1
    12    7    8 ar
    13    7   31 1
    14    8    9 ar
    15    8   11 1
    16    9   10 ar
    17    9   32 1
    18   10   33 1
    19   11   12 am
    20   11   34 1
    21   12   13 2
    22   12   14 1
    23   14   15 1
    24   14   35 1
    25   14   36 1
    26   15   16 1
    27   15   26 1
    28   15   17 1
    29   17   18 2
    30   17   19 am
    31   19   20 1
    32   19   37 1
    33   20   25 ar
    34   20   21 ar
    35   21   22 ar
    36   21   38 1
    37   22   23 ar
    38   22   39 1
    39   23   24 ar
    40   23   40 1
    41   24   25 ar
    42   24   41 1
    43   25   26 1
    44   26   42 1
@<TRIPOS>MOLECULE
ZINC00108905
   42    44     0     0     0
SMALL
USER_CHARGES

@<TRIPOS>ATOM
      1 C1         -4.9944   12.3177    6.2782 C.3       1 <0>        -0.2073
      2 C2         -4.9276   10.9004    5.7705 C.2       1 <0>         0.2966
      3 O1         -5.8845   10.1717    5.8857 O.2       1 <0>        -0.3405
      4 O2         -3.8050   10.4474    5.1903 O.3       1 <0>        -0.2076
      5 C3         -3.7740    9.1315    4.8492 C.ar      1 <0>         0.0440
      6 C4         -4.4787    8.6860    3.7403 C.ar      1 <0>        -0.1089
      7 C5         -4.4481    7.3499    3.3936 C.ar      1 <0>        -0.1150
      8 C6         -3.7114    6.4520    4.1548 C.ar      1 <0>         0.0600
      9 C7         -3.0102    6.8979    5.2674 C.ar      1 <0>        -0.1507
     10 C8         -3.0374    8.2351    5.6099 C.ar      1 <0>        -0.1113
     11 N1         -3.6803    5.0965    3.8040 N.am      1 <0>        -0.3248
     12 C9         -3.7014    4.7358    2.5055 C.2       1 <0>         0.3146
     13 O3         -3.8309    5.5794    1.6438 O.2       1 <0>        -0.3631
     14 C10        -3.5639    3.2843    2.1244 C.3       1 <0>        -0.2095
     15 C11        -3.6194    3.1495    0.6014 C.3       1 <0>         0.0541
     16 H1         -4.5312    3.6147    0.2269 H         1 <0>         0.1484
     17 C12        -3.6056    1.6899    0.2231 C.2       1 <0>         0.2944
     18 O4         -4.6539    1.0930    0.0961 O.2       1 <0>        -0.3525
     19 N2         -2.4429    1.0425    0.0255 N.am      1 <0>        -0.3031
     20 C13        -1.2257    1.7333    0.0318 C.ar      1 <0>         0.0061
     21 C14        -0.0226    1.0461    0.0298 C.ar      1 <0>        -0.1371
     22 C15         1.1707    1.7449    0.0297 C.ar      1 <0>        -0.1415
     23 C16         1.1705    3.1277    0.0366 C.ar      1 <0>        -0.1158
     24 C17        -0.0258    3.8227    0.0390 C.ar      1 <0>        -0.1588
     25 C18        -1.2232    3.1291    0.0348 C.ar      1 <0>         0.0708
     26 N3         -2.4492    3.8092    0.0143 N.pl3     1 <0>        -0.3789
     27 H2         -5.3580   12.9710    5.4850 H         1 <0>         0.1131
     28 H3         -5.6734   12.3671    7.1294 H         1 <0>         0.1183
     29 H4         -4.0002   12.6402    6.5873 H         1 <0>         0.1018
     30 H5         -5.0517    9.3843    3.1483 H         1 <0>         0.1461
     31 H6         -4.9967    7.0031    2.5303 H         1 <0>         0.1693
     32 H7         -2.4404    6.1994    5.8623 H         1 <0>         0.1343
     33 H8         -2.4885    8.5828    6.4726 H         1 <0>         0.1417
     34 H9         -3.6436    4.4172    4.4955 H         1 <0>         0.2348
     35 H10        -4.3785    2.7130    2.5696 H         1 <0>         0.1191
     36 H11        -2.6104    2.9017    2.4885 H         1 <0>         0.1184
     37 H12        -2.4482    0.0840   -0.1231 H         1 <0>         0.2446
     38 H13        -0.0167   -0.0339    0.0239 H         1 <0>         0.1332
     39 H14         2.1077    1.2079    0.0237 H         1 <0>         0.1330
     40 H15         2.1065    3.6665    0.0404 H         1 <0>         0.1333
     41 H16        -0.0252    4.9027    0.0446 H         1 <0>         0.1415
     42 H17        -2.5248    4.6897   -0.3856 H         1 <0>         0.2551
@<TRIPOS>BOND
     1    1    2 1
     2    1   27 1
     3    1   28 1
     4    1   29 1
     5    2    3 2
     6    2    4 1
     7    4    5 1
     8    5   10 ar
     9    5    6 ar
    10    6    7 ar
    11    6   30 1
    12    7    8 ar
    13    7   31 1
    14    8    9 ar
    15    8   11 1
    16    9   10 ar
    17    9   32 1
    18   10   33 1
    19   11   12 am
    20   11   34 1
    21   12   13 2
    22   12   14 1
    23   14   15 1
    24   14   35 1
    25   14   36 1
    26   15   16 1
    27   15   26 1
    28   15   17 1
    29   17   18 2
    30   17   19 am
    31   19   20 1
    32   19   37 1
    33   20   25 ar
    34   20   21 ar
    35   21   22 ar
    36   21   38 1
    37   22   23 ar
    38   22   39 1
    39   23   24 ar
    40   23   40 1
    41   24   25 ar
    42   24   41 1
    43   25   26 1
    44   26   42 1
@<TRIPOS>MOLECULE
ZINC00111293
   40    41     0     0     0
SMALL
USER_CHARGES

@<TRIPOS>ATOM
      1 C1         -0.7476   -0.4717   -1.5823 C.3       1 <0>        -0.8289
      2 S1          0.0021   -0.0041    0.0020 S.o2      1 <0>         2.6799
      3 O1          1.3808   -0.3481    0.0116 O.2       1 <0>        -0.9056
      4 O2         -0.8469   -0.3841    1.0763 O.2       1 <0>        -0.9069
      5 N1         -0.0204    1.6518    0.0111 N.pl3     1 <0>        -0.8798
      6 C2         -1.2989    2.3669    0.0211 C.3       1 <0>         0.0324
      7 C3         -1.0656    3.8079    0.3955 C.ar      1 <0>        -0.0791
      8 C4         -1.1107    4.1901    1.7245 C.ar      1 <0>        -0.1156
      9 C5         -0.8932    5.5067    2.0745 C.ar      1 <0>        -0.1070
     10 C6         -0.6377    6.4559    1.0836 C.ar      1 <0>        -0.1177
     11 C7         -0.5988    6.0646   -0.2556 C.ar      1 <0>        -0.0691
     12 C8         -0.8128    4.7438   -0.5916 C.ar      1 <0>        -0.1276
     13 C9         -0.4087    7.8696    1.4510 C.2       1 <0>         0.3435
     14 O3         -0.1860    8.6939    0.5859 O.2       1 <0>        -0.3683
     15 N2         -0.4470    8.2442    2.7450 N.am      1 <0>        -0.3850
     16 C10        -0.2201    9.6450    3.1091 C.3       1 <0>         0.0365
     17 C11        -0.3159    9.7971    4.6053 C.ar      1 <0>        -0.1138
     18 C12        -1.5324   10.0876    5.1941 C.ar      1 <0>        -0.1117
     19 C13        -1.6212   10.2219    6.5670 C.ar      1 <0>        -0.1304
     20 C14        -0.4915   10.0763    7.3503 C.ar      1 <0>        -0.1186
     21 C15         0.7261    9.7914    6.7610 C.ar      1 <0>        -0.1301
     22 C16         0.8138    9.6515    5.3886 C.ar      1 <0>        -0.1115
     23 H1         -0.1585   -0.0560   -2.3997 H         1 <0>         0.1364
     24 H2         -0.7703   -1.5582   -1.6668 H         1 <0>         0.1428
     25 H3         -1.7643   -0.0820   -1.6322 H         1 <0>         0.1316
     26 H4          0.8130    2.1481    0.0058 H         1 <0>         0.2514
     27 H5         -1.7506    2.3176   -0.9697 H         1 <0>         0.0753
     28 H6         -1.9673    1.9062    0.7484 H         1 <0>         0.1092
     29 H7         -1.3126    3.4554    2.4899 H         1 <0>         0.1434
     30 H8         -0.9246    5.8031    3.1126 H         1 <0>         0.1311
     31 H9         -0.4019    6.7943   -1.0272 H         1 <0>         0.1603
     32 H10        -0.7826    4.4396   -1.6275 H         1 <0>         0.1368
     33 H11        -0.6247    7.5864    3.4354 H         1 <0>         0.2276
     34 H12         0.7714    9.9512    2.7755 H         1 <0>         0.1007
     35 H13        -0.9736   10.2712    2.6313 H         1 <0>         0.1005
     36 H14        -2.4141   10.2058    4.5817 H         1 <0>         0.1348
     37 H15        -2.5725   10.4442    7.0274 H         1 <0>         0.1326
     38 H16        -0.5602   10.1849    8.4226 H         1 <0>         0.1317
     39 H17         1.6087    9.6777    7.3729 H         1 <0>         0.1329
     40 H18         1.7651    9.4289    4.9282 H         1 <0>         0.1352
@<TRIPOS>BOND
     1    1    2 1
     2    1   23 1
     3    1   24 1
     4    1   25 1
     5    2    3 2
     6    2    4 2
     7    2    5 1
     8    5    6 1
     9    5   26 1
    10    6    7 1
    11    6   27 1
    12    6   28 1
    13    7   12 ar
    14    7    8 ar
    15    8    9 ar
    16    8   29 1
    17    9   10 ar
    18    9   30 1
    19   10   11 ar
    20   10   13 1
    21   11   12 ar
    22   11   31 1
    23   12   32 1
    24   13   14 2
    25   13   15 am
    26   15   16 1
    27   15   33 1
    28   16   17 1
    29   16   34 1
    30   16   35 1
    31   17   22 ar
    32   17   18 ar
    33   18   19 ar
    34   18   36 1
    35   19   20 ar
    36   19   37 1
    37   20   21 ar
    38   20   38 1
    39   21   22 ar
    40   21   39 1
    41   22   40 1
@<TRIPOS>MOLECULE
ZINC00111773
   42    45     0     0     0
SMALL
USER_CHARGES

@<TRIPOS>ATOM
      1 C1         -0.0127    1.0858    0.0080 C.3       1 <0>        -0.2108
      2 C2         -0.7288    1.5792    1.2668 C.3       1 <0>        -0.0213
      3 O1         -0.0377    1.1059    2.4245 O.3       1 <0>        -0.1986
      4 C3         -0.5479    1.4577    3.6351 C.ar      1 <0>         0.0684
      5 C4         -1.6821    2.2438    3.7047 C.ar      1 <0>        -0.1513
      6 C5         -2.2068    2.5987    4.9502 C.ar      1 <0>        -0.0442
      7 C6         -1.5757    2.1666    6.1193 C.ar      1 <0>        -0.1338
      8 C7         -0.4414    1.3874    6.0426 C.ar      1 <0>        -0.1238
      9 C8          0.0766    1.0302    4.8054 C.ar      1 <0>         0.0699
     10 O2          1.1951    0.2624    4.7352 O.3       1 <0>        -0.2738
     11 C9         -3.4215    3.4332    5.0304 C.2       1 <0>         0.2148
     12 N1         -3.9093    3.7630    6.2641 N.am      1 <0>        -0.3056
     13 H1         -3.4457    3.4360    7.0876 H         1 <0>         0.2581
     14 C10        -5.0183    4.5311    6.3737 C.2       1 <0>         0.3721
     15 O3         -5.4666    4.8398    7.4637 O.2       1 <0>        -0.3504
     16 C11        -5.6626    4.9727    5.1373 C.2       1 <0>        -0.3355
     17 C12        -6.7966    5.7518    4.8404 C.2       1 <0>        -0.0523
     18 N2         -6.9140    5.8313    3.5432 N.2       1 <0>        -0.0607
     19 N3         -5.8752    5.1167    2.9336 N.pl3     1 <0>        -0.0757
     20 C13        -5.0940    4.5807    3.9131 C.2       1 <0>         0.1149
     21 N4         -3.9911    3.8231    3.9147 N.2       1 <0>        -0.2428
     22 C14        -5.6737    4.9773    1.5548 C.ar      1 <0>         0.0748
     23 C15        -4.3843    4.9333    1.0410 C.ar      1 <0>        -0.1284
     24 C16        -4.1889    4.7910   -0.3188 C.ar      1 <0>        -0.1205
     25 C17        -5.2756    4.7034   -1.1696 C.ar      1 <0>        -0.1302
     26 C18        -6.5608    4.7517   -0.6615 C.ar      1 <0>        -0.1181
     27 C19        -6.7629    4.8886    0.6978 C.ar      1 <0>        -0.1161
     28 H2          0.0021   -0.0041    0.0020 H         1 <0>         0.0926
     29 H3          1.0099    1.4631    0.0003 H         1 <0>         0.0878
     30 H4         -0.5399    1.4469   -0.8751 H         1 <0>         0.0888
     31 H5         -0.7436    2.6691    1.2728 H         1 <0>         0.0745
     32 H6         -1.7514    1.2020    1.2746 H         1 <0>         0.0821
     33 H7         -2.1642    2.5798    2.7986 H         1 <0>         0.1693
     34 H8         -1.9765    2.4435    7.0832 H         1 <0>         0.1312
     35 H9          0.0456    1.0544    6.9471 H         1 <0>         0.1527
     36 H10         2.0189    0.7684    4.7141 H         1 <0>         0.2319
     37 H11        -7.4572    6.2069    5.5635 H         1 <0>         0.2031
     38 H12        -3.5352    5.0061    1.7044 H         1 <0>         0.1506
     39 H13        -3.1864    4.7526   -0.7187 H         1 <0>         0.1329
     40 H14        -5.1202    4.5967   -2.2330 H         1 <0>         0.1325
     41 H15        -7.4075    4.6827   -1.3285 H         1 <0>         0.1374
     42 H16        -7.7669    4.9263    1.0940 H         1 <0>         0.1532
@<TRIPOS>BOND
     1    1    2 1
     2    1   28 1
     3    1   29 1
     4    1   30 1
     5    2    3 1
     6    2   31 1
     7    2   32 1
     8    3    4 1
     9    4    9 ar
    10    4    5 ar
    11    5    6 ar
    12    5   33 1
    13    6    7 ar
    14    6   11 1
    15    7    8 ar
    16    7   34 1
    17    8    9 ar
    18    8   35 1
    19    9   10 1
    20   10   36 1
    21   11   21 2
    22   11   12 1
    23   12   13 1
    24   12   14 am
    25   14   15 2
    26   14   16 1
    27   16   20 2
    28   16   17 1
    29   17   18 2
    30   17   37 1
    31   18   19 1
    32   19   20 1
    33   19   22 1
    34   20   21 1
    35   22   27 ar
    36   22   23 ar
    37   23   24 ar
    38   23   38 1
    39   24   25 ar
    40   24   39 1
    41   25   26 ar
    42   25   40 1
    43   26   27 ar
    44   26   41 1
    45   27   42 1
@<TRIPOS>MOLECULE
ZINC00111773
   42    45     0     0     0
SMALL
USER_CHARGES

@<TRIPOS>ATOM
      1 C1         -0.0127    1.0858    0.0080 C.3       1 <0>        -0.2107
      2 C2         -0.7288    1.5792    1.2668 C.3       1 <0>        -0.0185
      3 O1         -0.0377    1.1059    2.4245 O.3       1 <0>        -0.1963
      4 C3         -0.5479    1.4577    3.6351 C.ar      1 <0>         0.0726
      5 C4         -1.6821    2.2438    3.7047 C.ar      1 <0>        -0.2062
      6 C5         -2.2068    2.5987    4.9502 C.ar      1 <0>        -0.0494
      7 C6         -1.5757    2.1666    6.1193 C.ar      1 <0>        -0.0745
      8 C7         -0.4414    1.3874    6.0426 C.ar      1 <0>        -0.1304
      9 C8          0.0766    1.0302    4.8054 C.ar      1 <0>         0.0739
     10 O2          1.1951    0.2624    4.7352 O.3       1 <0>        -0.2740
     11 C9         -3.4215    3.4332    5.0304 C.2       1 <0>         0.1995
     12 N1         -3.9093    3.7630    6.2641 N.2       1 <0>        -0.2781
     13 H1         -3.5871    3.5507    3.0415 H         1 <0>         0.2465
     14 C10        -5.0183    4.5311    6.3737 C.2       1 <0>         0.3387
     15 O3         -5.4666    4.8398    7.4637 O.2       1 <0>        -0.3142
     16 C11        -5.6559    4.9824    5.1374 C.2       1 <0>        -0.3187
     17 C12        -6.7862    5.7669    4.8405 C.2       1 <0>        -0.0491
     18 N2         -6.9017    5.8492    3.5433 N.2       1 <0>        -0.0618
     19 N3         -5.8653    5.1311    2.9337 N.pl3     1 <0>        -0.1022
     20 C13        -5.0876    4.5900    3.9131 C.2       1 <0>         0.0892
     21 N4         -3.9881    3.8275    3.9147 N.pl3     1 <0>        -0.2056
     22 C14        -5.6628    4.9932    1.5549 C.ar      1 <0>         0.0734
     23 C15        -4.3730    4.9444    1.0425 C.ar      1 <0>        -0.1691
     24 C16        -4.1766    4.8036   -0.3173 C.ar      1 <0>        -0.1087
     25 C17        -5.2627    4.7223   -1.1695 C.ar      1 <0>        -0.1304
     26 C18        -6.5483    4.7754   -0.6629 C.ar      1 <0>        -0.1064
     27 C19        -6.7514    4.9108    0.6964 C.ar      1 <0>        -0.1121
     28 H2          0.0021   -0.0041    0.0020 H         1 <0>         0.0953
     29 H3          1.0099    1.4631    0.0003 H         1 <0>         0.0908
     30 H4         -0.5399    1.4469   -0.8751 H         1 <0>         0.0872
     31 H5         -0.7436    2.6691    1.2728 H         1 <0>         0.0666
     32 H6         -1.7514    1.2020    1.2746 H         1 <0>         0.0735
     33 H7         -2.1642    2.5798    2.7986 H         1 <0>         0.1263
     34 H8         -1.9765    2.4435    7.0832 H         1 <0>         0.1777
     35 H9          0.0456    1.0544    6.9471 H         1 <0>         0.1571
     36 H10         2.0189    0.7684    4.7141 H         1 <0>         0.2328
     37 H11        -7.4456    6.2237    5.5636 H         1 <0>         0.2098
     38 H12        -3.5244    5.0124    1.7070 H         1 <0>         0.1280
     39 H13        -3.1738    4.7615   -0.7161 H         1 <0>         0.1362
     40 H14        -5.1065    4.6168   -2.2329 H         1 <0>         0.1381
     41 H15        -7.3945    4.7112   -1.3310 H         1 <0>         0.1429
     42 H16        -7.7557    4.9522    1.0915 H         1 <0>         0.1602
@<TRIPOS>BOND
     1    1    2 1
     2    1   28 1
     3    1   29 1
     4    1   30 1
     5    2    3 1
     6    2   31 1
     7    2   32 1
     8    3    4 1
     9    4    9 ar
    10    4    5 ar
    11    5    6 ar
    12    5   33 1
    13    6    7 ar
    14    6   11 1
    15    7    8 ar
    16    7   34 1
    17    8    9 ar
    18    8   35 1
    19    9   10 1
    20   10   36 1
    21   11   21 1
    22   11   12 2
    23   12   14 1
    24   13   21 1
    25   14   15 2
    26   14   16 1
    27   16   17 1
    28   16   20 2
    29   17   18 2
    30   17   37 1
    31   18   19 1
    32   19   20 1
    33   19   22 1
    34   20   21 1
    35   22   27 ar
    36   22   23 ar
    37   23   24 ar
    38   23   38 1
    39   24   25 ar
    40   24   39 1
    41   25   26 ar
    42   25   40 1
    43   26   27 ar
    44   26   41 1
    45   27   42 1
@<TRIPOS>MOLECULE
ZINC00111773
   42    45     0     0     0
SMALL
USER_CHARGES

@<TRIPOS>ATOM
      1 C1         -0.0127    1.0858    0.0080 C.3       1 <0>        -0.2110
      2 C2         -0.7288    1.5792    1.2668 C.3       1 <0>        -0.0192
      3 O1         -0.0377    1.1059    2.4245 O.3       1 <0>        -0.2030
      4 C3         -0.5479    1.4577    3.6351 C.ar      1 <0>         0.0567
      5 C4         -1.6821    2.2438    3.7047 C.ar      1 <0>        -0.1629
      6 C5         -2.2068    2.5987    4.9502 C.ar      1 <0>        -0.0184
      7 C6         -1.5757    2.1666    6.1193 C.ar      1 <0>        -0.0998
      8 C7         -0.4414    1.3874    6.0426 C.ar      1 <0>        -0.1401
      9 C8          0.0766    1.0302    4.8054 C.ar      1 <0>         0.0647
     10 O2          1.1951    0.2624    4.7352 O.3       1 <0>        -0.2774
     11 C9         -3.4215    3.4332    5.0304 C.ar      1 <0>         0.2011
     12 N1         -3.9099    3.7622    6.2641 N.ar      1 <0>        -0.2951
     13 H1         -6.2810    5.4069    7.3407 H         1 <0>         0.2728
     14 C10        -5.0189    4.5302    6.3737 C.ar      1 <0>         0.2830
     15 O3         -5.4649    4.8423    7.4637 O.3       1 <0>        -0.1595
     16 C11        -5.6550    4.9837    5.1374 C.ar      1 <0>        -0.4183
     17 C12        -6.7845    5.7693    4.8405 C.2       1 <0>        -0.0994
     18 N2         -6.8994    5.8526    3.5433 N.2       1 <0>        -0.0293
     19 N3         -5.8635    5.1337    2.9337 N.pl3     1 <0>        -0.0951
     20 C13        -5.0865    4.5916    3.9132 C.ar      1 <0>         0.1631
     21 N4         -3.9875    3.8283    3.9147 N.ar      1 <0>        -0.2793
     22 C14        -5.6608    4.9961    1.5549 C.ar      1 <0>         0.0766
     23 C15        -4.3710    4.9464    1.0428 C.ar      1 <0>        -0.1250
     24 C16        -4.1744    4.8059   -0.3170 C.ar      1 <0>        -0.1185
     25 C17        -5.2604    4.7257   -1.1695 C.ar      1 <0>        -0.1304
     26 C18        -6.5460    4.7796   -0.6631 C.ar      1 <0>        -0.1183
     27 C19        -6.7493    4.9148    0.6962 C.ar      1 <0>        -0.1204
     28 H2          0.0021   -0.0041    0.0020 H         1 <0>         0.0911
     29 H3          1.0099    1.4630    0.0003 H         1 <0>         0.0864
     30 H4         -0.5399    1.4469   -0.8751 H         1 <0>         0.0851
     31 H5         -0.7436    2.6691    1.2728 H         1 <0>         0.0722
     32 H6         -1.7514    1.2020    1.2746 H         1 <0>         0.0800
     33 H7         -2.1642    2.5798    2.7986 H         1 <0>         0.1619
     34 H8         -1.9765    2.4435    7.0832 H         1 <0>         0.1617
     35 H9          0.0456    1.0544    6.9471 H         1 <0>         0.1481
     36 H10         2.0189    0.7684    4.7141 H         1 <0>         0.2271
     37 H11        -7.4439    6.2261    5.5636 H         1 <0>         0.1804
     38 H12        -3.5224    5.0135    1.7075 H         1 <0>         0.1547
     39 H13        -3.1716    4.7631   -0.7156 H         1 <0>         0.1346
     40 H14        -5.1041    4.6204   -2.2329 H         1 <0>         0.1327
     41 H15        -7.3921    4.7164   -1.3314 H         1 <0>         0.1366
     42 H16        -7.7536    4.9569    1.0911 H         1 <0>         0.1498
@<TRIPOS>BOND
     1    1    2 1
     2    1   28 1
     3    1   29 1
     4    1   30 1
     5    2    3 1
     6    2   31 1
     7    2   32 1
     8    3    4 1
     9    4    9 ar
    10    4    5 ar
    11    5    6 ar
    12    5   33 1
    13    6    7 ar
    14    6   11 1
    15    7    8 ar
    16    7   34 1
    17    8    9 ar
    18    8   35 1
    19    9   10 1
    20   10   36 1
    21   11   21 ar
    22   11   12 ar
    23   12   14 ar
    24   13   15 1
    25   14   15 1
    26   14   16 ar
    27   16   17 1
    28   16   20 ar
    29   17   18 2
    30   17   37 1
    31   18   19 1
    32   19   20 1
    33   19   22 1
    34   20   21 ar
    35   22   27 ar
    36   22   23 ar
    37   23   24 ar
    38   23   38 1
    39   24   25 ar
    40   24   39 1
    41   25   26 ar
    42   25   40 1
    43   26   27 ar
    44   26   41 1
    45   27   42 1
@<TRIPOS>MOLECULE
ZINC00111808
   38    40     0     0     0
SMALL
USER_CHARGES

@<TRIPOS>ATOM
      1 C1          2.3456    0.8698    0.7527 C.3       1 <0>        -0.2359
      2 C2          1.0222    1.5782    0.6187 C.2       1 <0>         0.3015
      3 O1          0.8870    2.6993    1.0609 O.2       1 <0>        -0.3491
      4 N1         -0.0111    0.9658    0.0074 N.am      1 <0>        -0.3292
      5 C3         -1.2589    1.5836   -0.0380 C.ar      1 <0>         0.0952
      6 C4         -1.3439    2.9681   -0.1566 C.ar      1 <0>        -0.1429
      7 C5         -2.5696    3.5799   -0.2074 C.ar      1 <0>        -0.0695
      8 C6         -3.7375    2.8107   -0.1287 C.ar      1 <0>        -0.1804
      9 C7         -3.6470    1.4187   -0.0037 C.ar      1 <0>        -0.0447
     10 C8         -2.4170    0.8151    0.0410 C.ar      1 <0>        -0.1808
     11 C9         -5.0528    3.4619   -0.1775 C.2       1 <0>         0.2855
     12 O2         -6.0630    2.7940   -0.1096 O.2       1 <0>        -0.2826
     13 C10        -5.1475    4.9599   -0.3120 C.3       1 <0>        -0.3098
     14 S1         -6.8885    5.4540   -0.3434 S.3       1 <0>         0.2960
     15 C11        -6.7083    7.1995   -0.5023 C.2       1 <0>        -0.2180
     16 N2         -7.7204    8.1146   -0.5828 N.pl3     1 <0>        -0.1845
     17 H1         -8.6739    7.9375   -0.5640 H         1 <0>         0.2664
     18 C12        -7.1034    9.3414   -0.6931 C.2       1 <0>         0.0017
     19 N3         -5.8067    9.1219   -0.6834 N.2       1 <0>        -0.0630
     20 N4         -5.5760    7.8628   -0.5712 N.2       1 <0>        -0.1073
     21 C13        -7.7688   10.6486   -0.8063 C.2       1 <0>        -0.0032
     22 C14        -7.1470   11.8563   -0.9145 C.2       1 <0>        -0.1472
     23 C15        -8.1623   12.8286   -0.9998 C.2       1 <0>        -0.2212
     24 C16        -9.3405   12.1775   -0.9320 C.2       1 <0>        -0.0831
     25 O3         -9.0996   10.8611   -0.8152 O.3       1 <0>        -0.0640
     26 H2          2.2759   -0.1190    0.2995 H         1 <0>         0.0791
     27 H3          3.1197    1.4474    0.2473 H         1 <0>         0.1157
     28 H4          2.5984    0.7688    1.8081 H         1 <0>         0.1178
     29 H5          0.1151    0.0967   -0.4045 H         1 <0>         0.2355
     30 H6         -0.4428    3.5608   -0.2131 H         1 <0>         0.1721
     31 H7         -2.6347    4.6535   -0.3042 H         1 <0>         0.1435
     32 H8         -4.5450    0.8217    0.0576 H         1 <0>         0.1546
     33 H9         -2.3463   -0.2582    0.1373 H         1 <0>         0.1358
     34 H10        -4.6918    5.3938    0.4652 H         1 <0>         0.1321
     35 H11        -4.6642    5.2728   -1.2375 H         1 <0>         0.1423
     36 H12        -6.0818   12.0334   -0.9336 H         1 <0>         0.1771
     37 H13        -8.0230   13.8952   -1.0965 H         1 <0>         0.1622
     38 H14       -10.3168   12.6380   -0.9657 H         1 <0>         0.2023
@<TRIPOS>BOND
     1    1    2 1
     2    1   26 1
     3    1   27 1
     4    1   28 1
     5    2    3 2
     6    2    4 am
     7    4    5 1
     8    4   29 1
     9    5   10 ar
    10    5    6 ar
    11    6    7 ar
    12    6   30 1
    13    7    8 ar
    14    7   31 1
    15    8    9 ar
    16    8   11 1
    17    9   10 ar
    18    9   32 1
    19   10   33 1
    20   11   12 2
    21   11   13 1
    22   13   14 1
    23   13   34 1
    24   13   35 1
    25   14   15 1
    26   15   20 2
    27   15   16 1
    28   16   17 1
    29   16   18 1
    30   18   19 2
    31   18   21 1
    32   19   20 1
    33   21   25 1
    34   21   22 2
    35   22   23 1
    36   22   36 1
    37   23   24 2
    38   23   37 1
    39   24   25 1
    40   24   38 1
@<TRIPOS>MOLECULE
ZINC00112082
   42    45     0     0     0
SMALL
USER_CHARGES

@<TRIPOS>ATOM
      1 C1          3.7096   -0.7165   -0.0376 C.3       1 <0>        -0.1678
      2 C2          2.3963    0.0223   -0.0207 C.ar      1 <0>        -0.0890
      3 C3          1.2072   -0.6813   -0.0126 C.ar      1 <0>        -0.0976
      4 C4          0.0021   -0.0041    0.0020 C.ar      1 <0>        -0.1399
      5 C5         -0.0167    1.3787    0.0096 C.ar      1 <0>        -0.0845
      6 C6          1.1693    2.0866    0.0021 C.ar      1 <0>        -0.1975
      7 C7          2.3801    1.4093   -0.0135 C.ar      1 <0>         0.0913
      8 O1          3.5484    2.1036   -0.0218 O.3       1 <0>        -0.2097
      9 C8          3.4556    3.5296   -0.0137 C.3       1 <0>        -0.0638
     10 C9         -1.3322    2.1137    0.0198 C.3       1 <0>         0.0267
     11 N1         -1.7520    2.3444    1.4043 N.pl3     1 <0>        -0.1537
     12 C10        -1.4448    3.4430    2.1810 C.ar      1 <0>        -0.0337
     13 C11        -0.7103    4.6013    1.9652 C.ar      1 <0>        -0.1258
     14 C12        -0.5898    5.5321    2.9750 C.ar      1 <0>        -0.1112
     15 C13        -1.1976    5.3195    4.2048 C.ar      1 <0>        -0.1441
     16 C14        -1.9241    4.1868    4.4366 C.ar      1 <0>        -0.0685
     17 C15        -2.0605    3.2272    3.4273 C.ar      1 <0>        -0.0453
     18 N2         -2.6998    2.0355    3.3563 N.2       1 <0>        -0.1809
     19 C16        -2.5271    1.5133    2.1673 C.2       1 <0>         0.1068
     20 C17        -3.0829    0.2178    1.7180 C.2       1 <0>        -0.1337
     21 C18        -3.9210   -0.7435    2.4722 C.2       1 <0>         0.0624
     22 N3         -4.1204   -1.6981    1.5939 N.2       1 <0>        -0.1421
     23 O2         -3.5532   -1.4226    0.5631 O.3       1 <0>         0.1219
     24 N4         -2.9527   -0.3737    0.5497 N.2       1 <0>        -0.0490
     25 N5         -4.3821   -0.6552    3.7791 N.pl3     1 <0>        -0.3652
     26 H1          4.0161   -0.8892   -1.0693 H         1 <0>         0.0864
     27 H2          4.4677   -0.1218    0.4719 H         1 <0>         0.0947
     28 H3          3.5950   -1.6731    0.4722 H         1 <0>         0.0785
     29 H4          1.2192   -1.7612   -0.0182 H         1 <0>         0.1388
     30 H5         -0.9263   -0.5558    0.0079 H         1 <0>         0.1505
     31 H6          1.1541    3.1665    0.0077 H         1 <0>         0.1331
     32 H7          2.9103    3.8633   -0.8966 H         1 <0>         0.0658
     33 H8          2.9283    3.8543    0.8833 H         1 <0>         0.0695
     34 H9          4.4575    3.9589   -0.0217 H         1 <0>         0.1086
     35 H10        -1.2177    3.0706   -0.4894 H         1 <0>         0.1059
     36 H11        -2.0859    1.5168   -0.4937 H         1 <0>         0.1298
     37 H12        -0.2352    4.7723    1.0105 H         1 <0>         0.1251
     38 H13        -0.0186    6.4334    2.8080 H         1 <0>         0.1326
     39 H14        -1.0951    6.0578    4.9863 H         1 <0>         0.1341
     40 H15        -2.3924    4.0316    5.3973 H         1 <0>         0.1407
     41 H16        -4.1578    0.1171    4.3215 H         1 <0>         0.2615
     42 H17        -4.9286   -1.3658    4.1497 H         1 <0>         0.2384
@<TRIPOS>BOND
     1    1    2 1
     2    1   26 1
     3    1   27 1
     4    1   28 1
     5    2    7 ar
     6    2    3 ar
     7    3    4 ar
     8    3   29 1
     9    4    5 ar
    10    4   30 1
    11    5    6 ar
    12    5   10 1
    13    6    7 ar
    14    6   31 1
    15    7    8 1
    16    8    9 1
    17    9   32 1
    18    9   33 1
    19    9   34 1
    20   10   11 1
    21   10   35 1
    22   10   36 1
    23   11   19 1
    24   11   12 1
    25   12   17 ar
    26   12   13 ar
    27   13   14 ar
    28   13   37 1
    29   14   15 ar
    30   14   38 1
    31   15   16 ar
    32   15   39 1
    33   16   17 ar
    34   16   40 1
    35   17   18 1
    36   18   19 2
    37   19   20 1
    38   20   24 2
    39   20   21 1
    40   21   22 2
    41   21   25 1
    42   22   23 1
    43   23   24 1
    44   25   41 1
    45   25   42 1
@<TRIPOS>MOLECULE
ZINC00112082
   43    46     0     0     0
SMALL
USER_CHARGES

@<TRIPOS>ATOM
      1 C1          3.7096   -0.7165   -0.0376 C.3       1 <0>        -0.1754
      2 C2          2.3963    0.0223   -0.0207 C.ar      1 <0>        -0.0619
      3 C3          1.2072   -0.6813   -0.0126 C.ar      1 <0>        -0.0922
      4 C4          0.0021   -0.0041    0.0020 C.ar      1 <0>        -0.1392
      5 C5         -0.0167    1.3787    0.0096 C.ar      1 <0>        -0.1209
      6 C6          1.1693    2.0866    0.0021 C.ar      1 <0>        -0.1975
      7 C7          2.3801    1.4093   -0.0135 C.ar      1 <0>         0.1034
      8 O1          3.5484    2.1036   -0.0218 O.3       1 <0>        -0.1948
      9 C8          3.4556    3.5296   -0.0137 C.3       1 <0>        -0.0648
     10 C9         -1.3322    2.1137    0.0198 C.3       1 <0>         0.0210
     11 N1         -1.7520    2.3444    1.4043 N.pl3     1 <0>        -0.0752
     12 C10        -1.4448    3.4430    2.1810 C.ar      1 <0>        -0.0057
     13 C11        -0.7103    4.6013    1.9652 C.ar      1 <0>        -0.0985
     14 C12        -0.5898    5.5321    2.9750 C.ar      1 <0>        -0.0758
     15 C13        -1.1976    5.3195    4.2048 C.ar      1 <0>        -0.0819
     16 C14        -1.9241    4.1868    4.4366 C.ar      1 <0>        -0.0950
     17 C15        -2.0605    3.2272    3.4273 C.ar      1 <0>        -0.0435
     18 C16        -2.5271    1.5133    2.1673 C.cat     1 <0>         0.2222
     19 C17        -3.0829    0.2178    1.7180 C.2       1 <0>        -0.2287
     20 C18        -3.9210   -0.7435    2.4722 C.2       1 <0>         0.0599
     21 N2         -4.1204   -1.6981    1.5939 N.2       1 <0>        -0.0781
     22 O2         -3.5532   -1.4226    0.5631 O.3       1 <0>         0.1740
     23 N3         -2.9527   -0.3737    0.5497 N.2       1 <0>         0.0194
     24 N4         -4.3821   -0.6552    3.7791 N.pl3     1 <0>        -0.3642
     25 H1          4.0161   -0.8892   -1.0693 H         1 <0>         0.1031
     26 H2          4.4677   -0.1218    0.4719 H         1 <0>         0.1041
     27 H3          3.5950   -1.6731    0.4722 H         1 <0>         0.0877
     28 H4          1.2192   -1.7612   -0.0182 H         1 <0>         0.1524
     29 H5         -0.9263   -0.5558    0.0079 H         1 <0>         0.1394
     30 H6          1.1541    3.1665    0.0077 H         1 <0>         0.1317
     31 H7          2.9103    3.8633   -0.8966 H         1 <0>         0.0705
     32 H8          2.9283    3.8543    0.8833 H         1 <0>         0.0589
     33 H9          4.4575    3.9589   -0.0217 H         1 <0>         0.1262
     34 H10        -1.2177    3.0706   -0.4894 H         1 <0>         0.1348
     35 H11        -2.0859    1.5168   -0.4937 H         1 <0>         0.1471
     36 H12        -0.2352    4.7723    1.0105 H         1 <0>         0.1596
     37 H13        -0.0186    6.4334    2.8080 H         1 <0>         0.1692
     38 H14        -1.0951    6.0578    4.9863 H         1 <0>         0.1703
     39 H15        -2.3924    4.0316    5.3973 H         1 <0>         0.1586
     40 H16        -4.1578    0.1171    4.3215 H         1 <0>         0.2248
     41 H17        -4.9286   -1.3658    4.1497 H         1 <0>         0.2717
     42 N5         -2.7004    2.0350    3.3571 N.pl3     1 <0>        -0.1155
     43 H18        -3.2385    1.6061    4.1191 H         1 <0>         0.2987
@<TRIPOS>BOND
     1    1    2 1
     2    1   25 1
     3    1   26 1
     4    1   27 1
     5    2    7 ar
     6    2    3 ar
     7    3    4 ar
     8    3   28 1
     9    4    5 ar
    10    4   29 1
    11    5    6 ar
    12    5   10 1
    13    6    7 ar
    14    6   30 1
    15    7    8 1
    16    8    9 1
    17    9   31 1
    18    9   32 1
    19    9   33 1
    20   10   11 1
    21   10   34 1
    22   10   35 1
    23   11   18 1
    24   11   12 1
    25   12   17 ar
    26   12   13 ar
    27   13   14 ar
    28   13   36 1
    29   14   15 ar
    30   14   37 1
    31   15   16 ar
    32   15   38 1
    33   16   17 ar
    34   16   39 1
    35   17   42 1
    36   18   19 1
    37   18   42 2
    38   19   23 2
    39   19   20 1
    40   20   21 2
    41   20   24 1
    42   21   22 1
    43   22   23 1
    44   24   40 1
    45   24   41 1
    46   42   43 1
@<TRIPOS>MOLECULE
ZINC00112763
   39    41     0     0     0
SMALL
USER_CHARGES

@<TRIPOS>ATOM
      1 C1          8.1567   -1.5175    0.4313 C.3       1 <0>        -0.0595
      2 O1          6.9870   -0.8587   -0.0584 O.3       1 <0>        -0.2641
      3 C2          5.9507   -0.7315    0.7987 C.2       1 <0>         0.3780
      4 O2          6.0403   -1.1694    1.9320 O.2       1 <0>        -0.3498
      5 C3          4.7720   -0.0955    0.3840 C.2       1 <0>        -0.3856
      6 C4          4.7240    1.2622    0.3366 C.2       1 <0>         0.2811
      7 O3          3.6114    1.9038   -0.0552 O.3       1 <0>        -0.1095
      8 C5          2.4156    1.2656   -0.0233 C.2       1 <0>        -0.0962
      9 C6          1.2184    2.0376   -0.0182 C.2       1 <0>         0.3011
     10 O4          1.2544    3.2584   -0.0436 O.2       1 <0>        -0.2965
     11 C7         -0.0163    1.3419    0.0170 C.2       1 <0>        -0.2844
     12 C8          0.0027   -0.0045    0.0434 C.2       1 <0>         0.0852
     13 O5          1.1387   -0.6976    0.0368 O.3       1 <0>        -0.0759
     14 C9          2.3292   -0.0798    0.0040 C.2       1 <0>         0.0388
     15 C10         3.5798   -0.9241   -0.0023 C.3       1 <0>         0.0812
     16 H1          3.4651   -1.7437    0.7071 H         1 <0>         0.1398
     17 C11         3.7922   -1.4903   -1.3826 C.ar      1 <0>        -0.1208
     18 C12         3.9492   -0.6410   -2.4617 C.ar      1 <0>        -0.0803
     19 C13         4.1497   -1.1600   -3.7270 C.ar      1 <0>        -0.1401
     20 C14         4.1822   -2.5292   -3.9165 C.ar      1 <0>        -0.0982
     21 C15         4.0197   -3.3803   -2.8402 C.ar      1 <0>        -0.1667
     22 C16         3.8244   -2.8614   -1.5712 C.ar      1 <0>         0.1111
     23 F1          3.6660   -3.6926   -0.5180 F         1 <0>        -0.1050
     24 C17        -1.3060   -0.7508    0.0811 C.3       1 <0>         0.0469
     25 O6         -1.7432   -1.0135   -1.2538 O.3       1 <0>        -0.3406
     26 N1          5.8290    1.9877    0.6939 N.pl3     1 <0>        -0.3774
     27 H2          8.5505   -0.9700    1.2876 H         1 <0>         0.0723
     28 H3          7.9016   -2.5327    0.7351 H         1 <0>         0.0837
     29 H4          8.9103   -1.5522   -0.3555 H         1 <0>         0.1022
     30 H5         -0.9525    1.8802    0.0180 H         1 <0>         0.1784
     31 H6          3.9196    0.4287   -2.3154 H         1 <0>         0.1429
     32 H7          4.2764   -0.4955   -4.5689 H         1 <0>         0.1361
     33 H8          4.3348   -2.9337   -4.9062 H         1 <0>         0.1355
     34 H9          4.0448   -4.4498   -2.9885 H         1 <0>         0.1446
     35 H10        -1.1714   -1.6935    0.6115 H         1 <0>         0.0856
     36 H11        -2.0536   -0.1476    0.5962 H         1 <0>         0.0909
     37 H12        -2.5816   -1.4924   -1.3060 H         1 <0>         0.2244
     38 H13         6.6599    1.5337    0.9046 H         1 <0>         0.2550
     39 H14         5.7809    2.9555    0.7364 H         1 <0>         0.2360
@<TRIPOS>BOND
     1    1    2 1
     2    1   27 1
     3    1   28 1
     4    1   29 1
     5    2    3 1
     6    3    4 2
     7    3    5 1
     8    5   15 1
     9    5    6 2
    10    6    7 1
    11    6   26 1
    12    7    8 1
    13    8   14 2
    14    8    9 1
    15    9   10 2
    16    9   11 1
    17   11   12 2
    18   11   30 1
    19   12   13 1
    20   12   24 1
    21   13   14 1
    22   14   15 1
    23   15   16 1
    24   15   17 1
    25   17   22 ar
    26   17   18 ar
    27   18   19 ar
    28   18   31 1
    29   19   20 ar
    30   19   32 1
    31   20   21 ar
    32   20   33 1
    33   21   22 ar
    34   21   34 1
    35   22   23 1
    36   24   25 1
    37   24   35 1
    38   24   36 1
    39   25   37 1
    40   26   38 1
    41   26   39 1
@<TRIPOS>MOLECULE
ZINC00112768
   39    41     0     0     0
SMALL
USER_CHARGES

@<TRIPOS>ATOM
      1 C1          1.2780    5.6515    0.5609 C.3       1 <0>        -0.0521
      2 O1          0.0039    5.0125    0.4597 O.3       1 <0>        -0.2573
      3 C2          0.0020    3.6793    0.2426 C.2       1 <0>         0.3891
      4 O2          1.0562    3.0771    0.1421 O.2       1 <0>        -0.4117
      5 C3         -1.2133    2.9886    0.1328 C.2       1 <0>        -0.3676
      6 C4         -1.2079    1.6738   -0.2121 C.2       1 <0>         0.3054
      7 O3         -2.3525    0.9800   -0.3198 O.3       1 <0>        -0.1115
      8 C5         -3.4794    1.4366    0.2800 C.2       1 <0>        -0.1026
      9 C6         -4.5474    0.5276    0.5303 C.2       1 <0>         0.2998
     10 O4         -4.4619   -0.6492    0.2139 O.2       1 <0>        -0.2952
     11 C7         -5.7129    1.0343    1.1583 C.2       1 <0>        -0.2838
     12 C8         -5.7536    2.3403    1.4847 C.2       1 <0>         0.0838
     13 O5         -4.7382    3.1645    1.2382 O.3       1 <0>        -0.0766
     14 C9         -3.6167    2.7273    0.6455 C.2       1 <0>         0.0377
     15 C10        -2.5033    3.7137    0.3923 C.3       1 <0>         0.0647
     16 H1         -2.3845    4.3553    1.2654 H         1 <0>         0.1436
     17 C11        -2.8501    4.5604   -0.8052 C.ar      1 <0>        -0.1166
     18 C12        -3.0584    3.9657   -2.0354 C.ar      1 <0>        -0.0920
     19 C13        -3.3770    4.7420   -3.1338 C.ar      1 <0>        -0.1440
     20 C14        -3.4881    6.1140   -3.0032 C.ar      1 <0>        -0.1002
     21 C15        -3.2798    6.7107   -1.7745 C.ar      1 <0>        -0.1697
     22 C16        -2.9658    5.9335   -0.6722 C.ar      1 <0>         0.1214
     23 F1         -2.7678    6.5152    0.5309 F         1 <0>        -0.1002
     24 C17        -6.9897    2.8864    2.1517 C.3       1 <0>         0.0469
     25 O6         -6.8553    2.7732    3.5698 O.3       1 <0>        -0.3410
     26 N1         -0.0148    1.0448   -0.4484 N.pl3     1 <0>        -0.3716
     27 H2          1.8327    5.5049   -0.3659 H         1 <0>         0.0757
     28 H3          1.1367    6.7182    0.7349 H         1 <0>         0.1020
     29 H4          1.8366    5.2189    1.3909 H         1 <0>         0.0783
     30 H5         -6.5506    0.3866    1.3707 H         1 <0>         0.1781
     31 H6         -2.9719    2.8941   -2.1385 H         1 <0>         0.1413
     32 H7         -3.5396    4.2765   -4.0946 H         1 <0>         0.1356
     33 H8         -3.7374    6.7195   -3.8621 H         1 <0>         0.1356
     34 H9         -3.3663    7.7824   -1.6728 H         1 <0>         0.1448
     35 H10        -7.1155    3.9348    1.8812 H         1 <0>         0.0853
     36 H11        -7.8606    2.3193    1.8229 H         1 <0>         0.0908
     37 H12        -7.6162    3.1063    4.0649 H         1 <0>         0.2246
     38 H13         0.6852    1.5015   -0.9407 H         1 <0>         0.2747
     39 H14         0.1319    0.1439   -0.1200 H         1 <0>         0.2347
@<TRIPOS>BOND
     1    1    2 1
     2    1   27 1
     3    1   28 1
     4    1   29 1
     5    2    3 1
     6    3    4 2
     7    3    5 1
     8    5   15 1
     9    5    6 2
    10    6    7 1
    11    6   26 1
    12    7    8 1
    13    8   14 2
    14    8    9 1
    15    9   10 2
    16    9   11 1
    17   11   12 2
    18   11   30 1
    19   12   13 1
    20   12   24 1
    21   13   14 1
    22   14   15 1
    23   15   16 1
    24   15   17 1
    25   17   22 ar
    26   17   18 ar
    27   18   19 ar
    28   18   31 1
    29   19   20 ar
    30   19   32 1
    31   20   21 ar
    32   20   33 1
    33   21   22 ar
    34   21   34 1
    35   22   23 1
    36   24   25 1
    37   24   35 1
    38   24   36 1
    39   25   37 1
    40   26   38 1
    41   26   39 1
@<TRIPOS>MOLECULE
ZINC00115651
   41    43     0     0     0
SMALL
USER_CHARGES

@<TRIPOS>ATOM
      1 C1         -8.5476   11.6004   -3.2178 C.3       1 <0>        -0.1979
      2 C2         -8.9590   10.1652   -3.5523 C.3       1 <0>        -0.0342
      3 C3         -8.7427    9.9074   -5.0449 C.3       1 <0>        -0.2041
      4 C4        -10.4365    9.9650   -3.2090 C.3       1 <0>        -0.1979
      5 C5         -8.1219    9.2027   -2.7499 C.ar      1 <0>        -0.0452
      6 C6         -8.1545    9.2477   -1.3678 C.ar      1 <0>        -0.1334
      7 C7         -7.3892    8.3691   -0.6280 C.ar      1 <0>        -0.0928
      8 C8         -6.5832    7.4354   -1.2758 C.ar      1 <0>        -0.0202
      9 C9         -6.5501    7.3979   -2.6681 C.ar      1 <0>        -0.0853
     10 C10        -7.3235    8.2777   -3.3981 C.ar      1 <0>        -0.1394
     11 C11        -5.7580    6.4880   -0.4854 C.2       1 <0>        -0.0445
     12 N1         -4.9310    5.5390   -0.9791 N.2       1 <0>        -0.1695
     13 C12        -4.4160    4.9425    0.0670 C.2       1 <0>        -0.0386
     14 O1         -4.9256    5.5376    1.1500 O.3       1 <0>         0.0341
     15 N2         -5.6906    6.4185    0.8186 N.2       1 <0>        -0.0530
     16 C13        -3.4293    3.8035    0.0525 C.3       1 <0>        -0.1941
     17 S1         -1.7408    4.4663    0.0402 S.3       1 <0>         0.3112
     18 C14        -0.7194    3.0306    0.0239 C.2       1 <0>        -0.1508
     19 N3          0.6185    3.0283    0.0116 N.2       1 <0>        -0.2639
     20 C15         1.0587    1.7881    0.0016 C.2       1 <0>         0.1823
     21 N4         -0.0111    0.9658    0.0074 N.pl3     1 <0>        -0.2358
     22 H1          0.0021   -0.0041    0.0020 H         1 <0>         0.2696
     23 N5         -1.1472    1.7909    0.0165 N.2       1 <0>        -0.1461
     24 N6          2.3850    1.3964   -0.0129 N.pl3     1 <0>        -0.3921
     25 H2         -7.4950   11.7430   -3.4623 H         1 <0>         0.0802
     26 H3         -9.1530   12.2966   -3.7982 H         1 <0>         0.0759
     27 H4         -8.7017   11.7840   -2.1545 H         1 <0>         0.0760
     28 H5         -9.0358    8.8850   -5.2832 H         1 <0>         0.0780
     29 H6         -9.3482   10.6036   -5.6253 H         1 <0>         0.0766
     30 H7         -7.6901   10.0501   -5.2894 H         1 <0>         0.0785
     31 H8        -10.5905   10.1486   -2.1457 H         1 <0>         0.0759
     32 H9        -11.0419   10.6612   -3.7894 H         1 <0>         0.0759
     33 H10       -10.7295    8.9425   -3.4474 H         1 <0>         0.0797
     34 H11        -8.7797    9.9719   -0.8667 H         1 <0>         0.1361
     35 H12        -7.4148    8.4056    0.4511 H         1 <0>         0.1462
     36 H13        -5.9234    6.6793   -3.1753 H         1 <0>         0.1507
     37 H14        -7.3020    8.2466   -4.4775 H         1 <0>         0.1415
     38 H15        -3.5879    3.1967   -0.8391 H         1 <0>         0.1497
     39 H16        -3.5716    3.1881    0.9408 H         1 <0>         0.1355
     40 H17         2.6121    0.4534   -0.0199 H         1 <0>         0.2297
     41 H18         3.0881    2.0646   -0.0161 H         1 <0>         0.2553
@<TRIPOS>BOND
     1    1    2 1
     2    1   25 1
     3    1   26 1
     4    1   27 1
     5    2    3 1
     6    2    4 1
     7    2    5 1
     8    3   28 1
     9    3   29 1
    10    3   30 1
    11    4   31 1
    12    4   32 1
    13    4   33 1
    14    5   10 ar
    15    5    6 ar
    16    6    7 ar
    17    6   34 1
    18    7    8 ar
    19    7   35 1
    20    8    9 ar
    21    8   11 1
    22    9   10 ar
    23    9   36 1
    24   10   37 1
    25   11   15 2
    26   11   12 1
    27   12   13 2
    28   13   14 1
    29   13   16 1
    30   14   15 1
    31   16   17 1
    32   16   38 1
    33   16   39 1
    34   17   18 1
    35   18   23 2
    36   18   19 1
    37   19   20 2
    38   20   21 1
    39   20   24 1
    40   21   22 1
    41   21   23 1
    42   24   40 1
    43   24   41 1
@<TRIPOS>MOLECULE
ZINC00116246
   46    47     0     0     0
SMALL
USER_CHARGES

@<TRIPOS>ATOM
      1 C1         -1.3730   -0.5554   -0.9305 C.3       1 <0>        -0.2054
      2 C2          0.0500   -0.0220   -0.7537 C.3       1 <0>        -0.0201
      3 C3          0.8774   -0.3545   -1.9970 C.3       1 <0>        -0.2020
      4 C4          0.6900   -0.6732    0.4740 C.3       1 <0>        -0.2017
      5 C5          0.0064    1.4725   -0.5643 C.ar      1 <0>        -0.0790
      6 C6         -1.2055    2.1359   -0.5765 C.ar      1 <0>        -0.0954
      7 C7         -1.2465    3.5061   -0.3981 C.ar      1 <0>        -0.1596
      8 C8         -0.0746    4.2176   -0.2174 C.ar      1 <0>        -0.0957
      9 C9          1.1399    3.5598   -0.2096 C.ar      1 <0>        -0.2211
     10 C10         1.1834    2.1839   -0.3833 C.ar      1 <0>         0.0912
     11 O1          2.3771    1.5343   -0.3765 O.3       1 <0>        -0.1782
     12 C11         3.5480    2.3309   -0.1849 C.3       1 <0>        -0.0398
     13 C12         4.7671    1.4452   -0.2066 C.2       1 <0>         0.2990
     14 O2          4.6452    0.2497   -0.3700 O.2       1 <0>        -0.3167
     15 N1          5.9927    1.9817   -0.0445 N.am      1 <0>        -0.3289
     16 C13         7.1103    1.1528    0.0457 C.ar      1 <0>         0.0882
     17 C14         7.0023   -0.0944    0.6529 C.ar      1 <0>        -0.1388
     18 C15         8.1026   -0.9173    0.7392 C.ar      1 <0>        -0.0852
     19 C16         9.3315   -0.4943    0.2257 C.ar      1 <0>        -0.1480
     20 C17         9.4378    0.7612   -0.3788 C.ar      1 <0>        -0.0463
     21 C18         8.3324    1.5770   -0.4666 C.ar      1 <0>        -0.1744
     22 C19        10.5145   -1.3718    0.3211 C.2       1 <0>         0.3517
     23 O3         11.5830   -1.0026   -0.1265 O.2       1 <0>        -0.3718
     24 N2         10.4103   -2.5823    0.9044 N.am      1 <0>        -0.4282
     25 H1         -1.8289   -0.0914   -1.8051 H         1 <0>         0.0738
     26 H2         -1.3415   -1.6363   -1.0675 H         1 <0>         0.0779
     27 H3         -1.9625   -0.3185   -0.0447 H         1 <0>         0.0733
     28 H4          1.8912    0.0255   -1.8711 H         1 <0>         0.1011
     29 H5          0.9090   -1.4354   -2.1340 H         1 <0>         0.0745
     30 H6          0.4215    0.1094   -2.8716 H         1 <0>         0.0694
     31 H7          0.1005   -0.4363    1.3597 H         1 <0>         0.0688
     32 H8          0.7215   -1.7541    0.3370 H         1 <0>         0.0742
     33 H9          1.7038   -0.2932    0.5999 H         1 <0>         0.0997
     34 H10        -2.1218    1.5830   -0.7215 H         1 <0>         0.1437
     35 H11        -2.1952    4.0224   -0.4038 H         1 <0>         0.1309
     36 H12        -0.1089    5.2887   -0.0826 H         1 <0>         0.1292
     37 H13         2.0549    4.1160   -0.0689 H         1 <0>         0.1263
     38 H14         3.6204    3.0684   -0.9842 H         1 <0>         0.0961
     39 H15         3.4868    2.8414    0.7762 H         1 <0>         0.0966
     40 H16         6.0974    2.9446    0.0095 H         1 <0>         0.2337
     41 H17         6.0532   -0.4190    1.0532 H         1 <0>         0.1631
     42 H18         8.0171   -1.8870    1.2070 H         1 <0>         0.1299
     43 H19        10.3860    1.0909   -0.7770 H         1 <0>         0.1604
     44 H20         8.4137    2.5472   -0.9340 H         1 <0>         0.1356
     45 H21         9.5579   -2.8768    1.2615 H         1 <0>         0.2163
     46 H22        11.1878   -3.1590    0.9671 H         1 <0>         0.2314
@<TRIPOS>BOND
     1    1    2 1
     2    1   25 1
     3    1   26 1
     4    1   27 1
     5    2    3 1
     6    2    4 1
     7    2    5 1
     8    3   28 1
     9    3   29 1
    10    3   30 1
    11    4   31 1
    12    4   32 1
    13    4   33 1
    14    5   10 ar
    15    5    6 ar
    16    6    7 ar
    17    6   34 1
    18    7    8 ar
    19    7   35 1
    20    8    9 ar
    21    8   36 1
    22    9   10 ar
    23    9   37 1
    24   10   11 1
    25   11   12 1
    26   12   13 1
    27   12   38 1
    28   12   39 1
    29   13   14 2
    30   13   15 am
    31   15   16 1
    32   15   40 1
    33   16   21 ar
    34   16   17 ar
    35   17   18 ar
    36   17   41 1
    37   18   19 ar
    38   18   42 1
    39   19   20 ar
    40   19   22 1
    41   20   21 ar
    42   20   43 1
    43   21   44 1
    44   22   23 2
    45   22   24 am
    46   24   45 1
    47   24   46 1
@<TRIPOS>MOLECULE
ZINC00122316
   41    42     0     0     0
SMALL
USER_CHARGES

@<TRIPOS>ATOM
      1 C1          7.2170    0.4224   -0.0534 C.3       1 <0>        -0.1760
      2 C2          6.0082    1.3221   -0.0341 C.ar      1 <0>        -0.0396
      3 C3          6.1693    2.6955   -0.0187 C.ar      1 <0>        -0.1580
      4 C4          5.0624    3.5235   -0.0005 C.ar      1 <0>        -0.0920
      5 C5          3.7919    2.9804    0.0018 C.ar      1 <0>        -0.2264
      6 C6          3.6276    1.6032   -0.0141 C.ar      1 <0>         0.0922
      7 C7          4.7403    0.7742   -0.0265 C.ar      1 <0>        -0.0918
      8 C8          4.5654   -0.7226   -0.0370 C.3       1 <0>        -0.1702
      9 O1          2.3791    1.0666   -0.0118 O.3       1 <0>        -0.1787
     10 C9          1.2804    1.9801    0.0073 C.3       1 <0>        -0.0338
     11 C10        -0.0143    1.2088    0.0069 C.2       1 <0>         0.3001
     12 O2          0.0022   -0.0038   -0.0082 O.2       1 <0>        -0.3104
     13 N1         -1.1906    1.8666    0.0178 N.am      1 <0>        -0.3337
     14 C11        -2.3910    1.1552   -0.0859 C.ar      1 <0>         0.1195
     15 C12        -3.4682    1.7039   -0.7694 C.ar      1 <0>        -0.1873
     16 C13        -4.6497    0.9965   -0.8753 C.ar      1 <0>        -0.0089
     17 C14        -4.7645   -0.2518   -0.2916 C.ar      1 <0>        -0.7800
     18 C15        -3.6958   -0.7984    0.3948 C.ar      1 <0>        -0.0089
     19 C16        -2.5096   -0.0987    0.4991 C.ar      1 <0>        -0.1532
     20 S1         -6.2758   -1.1482   -0.4234 S.o2      1 <0>         2.7631
     21 O3         -6.9405   -0.6560   -1.5789 O.2       1 <0>        -0.9186
     22 O4         -5.9491   -2.5214   -0.2594 O.2       1 <0>        -0.9151
     23 N2         -7.2106   -0.7256    0.8765 N.pl3     1 <0>        -0.9319
     24 H1          7.5156    0.1931    0.9695 H         1 <0>         0.0889
     25 H2          6.9734   -0.5022   -0.5767 H         1 <0>         0.0886
     26 H3          8.0362    0.9256   -0.5670 H         1 <0>         0.0830
     27 H4          7.1615    3.1219   -0.0205 H         1 <0>         0.1322
     28 H5          5.1908    4.5958    0.0115 H         1 <0>         0.1294
     29 H6          2.9275    3.6277    0.0157 H         1 <0>         0.1253
     30 H7          4.5176   -1.0756   -1.0672 H         1 <0>         0.0885
     31 H8          5.4101   -1.1906    0.4686 H         1 <0>         0.0785
     32 H9          3.6422   -0.9842    0.4799 H         1 <0>         0.1006
     33 H10         1.3232    2.6185   -0.8752 H         1 <0>         0.0982
     34 H11         1.3359    2.5964    0.9046 H         1 <0>         0.0947
     35 H12        -1.2050    2.8332    0.0976 H         1 <0>         0.2346
     36 H13        -3.3807    2.6809   -1.2214 H         1 <0>         0.1369
     37 H14        -5.4862    1.4207   -1.4108 H         1 <0>         0.1551
     38 H15        -3.7886   -1.7735    0.8496 H         1 <0>         0.1587
     39 H16        -1.6750   -0.5264    1.0348 H         1 <0>         0.1739
     40 H17        -6.8770   -0.0881    1.5271 H         1 <0>         0.2288
     41 H18        -8.0919   -1.1155    0.9874 H         1 <0>         0.2434
@<TRIPOS>BOND
     1    1    2 1
     2    1   24 1
     3    1   25 1
     4    1   26 1
     5    2    7 ar
     6    2    3 ar
     7    3    4 ar
     8    3   27 1
     9    4    5 ar
    10    4   28 1
    11    5    6 ar
    12    5   29 1
    13    6    7 ar
    14    6    9 1
    15    7    8 1
    16    8   30 1
    17    8   31 1
    18    8   32 1
    19    9   10 1
    20   10   11 1
    21   10   33 1
    22   10   34 1
    23   11   12 2
    24   11   13 am
    25   13   14 1
    26   13   35 1
    27   14   19 ar
    28   14   15 ar
    29   15   16 ar
    30   15   36 1
    31   16   17 ar
    32   16   37 1
    33   17   18 ar
    34   17   20 1
    35   18   19 ar
    36   18   38 1
    37   19   39 1
    38   20   21 2
    39   20   22 2
    40   20   23 1
    41   23   40 1
    42   23   41 1
@<TRIPOS>MOLECULE
ZINC00129955
   42    44     0     0     0
SMALL
USER_CHARGES

@<TRIPOS>ATOM
      1 C1          4.1182   -0.4662   -1.9821 C.3       1 <0>        -0.2223
      2 C2          4.0812   -0.2794   -0.4640 C.3       1 <0>         0.0657
      3 C3          4.8035    1.0261   -0.0545 C.3       1 <0>        -0.1431
      4 C4          3.6575    2.0191   -0.0173 C.ar      1 <0>        -0.1764
      5 C5          3.6284    3.3957    0.0032 C.ar      1 <0>        -0.0521
      6 C6          2.4176    4.0698    0.0247 C.ar      1 <0>        -0.1699
      7 C7          1.2352    3.3617    0.0242 C.ar      1 <0>        -0.0741
      8 C8          1.2529    1.9669    0.0068 C.ar      1 <0>        -0.1589
      9 C9          2.4814    1.2814   -0.0047 C.ar      1 <0>         0.1520
     10 O1          2.7355   -0.0531   -0.0112 O.3       1 <0>        -0.1559
     11 C10        -0.0143    1.2120    0.0068 C.2       1 <0>         0.3509
     12 O2          0.0023   -0.0038   -0.0084 O.2       1 <0>        -0.3295
     13 N1         -1.1906    1.8697    0.0179 N.am      1 <0>        -0.3332
     14 C11        -2.3904    1.1587   -0.0859 C.ar      1 <0>         0.1242
     15 C12        -3.4678    1.7075   -0.7694 C.ar      1 <0>        -0.1913
     16 C13        -4.6492    1.0000   -0.8753 C.ar      1 <0>        -0.0096
     17 C14        -4.7642   -0.2482   -0.2912 C.ar      1 <0>        -0.7838
     18 C15        -3.6952   -0.7949    0.3949 C.ar      1 <0>        -0.0103
     19 C16        -2.5091   -0.0954    0.4992 C.ar      1 <0>        -0.1543
     20 S1         -6.2758   -1.1440   -0.4219 S.o2      1 <0>         2.7635
     21 O3         -6.9409   -0.6519   -1.5772 O.2       1 <0>        -0.9207
     22 O4         -5.9495   -2.5173   -0.2577 O.2       1 <0>        -0.9172
     23 N2         -7.2098   -0.7207    0.8783 N.pl3     1 <0>        -0.9321
     24 C17         4.7000   -1.4863    0.2440 C.3       1 <0>        -0.2008
     25 H1          5.1543   -0.5177   -2.3167 H         1 <0>         0.0834
     26 H2          3.6045   -1.3903   -2.2471 H         1 <0>         0.0963
     27 H3          3.6222    0.3762   -2.4641 H         1 <0>         0.0883
     28 H4          5.5434    1.3128   -0.8018 H         1 <0>         0.1040
     29 H5          5.2639    0.9255    0.9283 H         1 <0>         0.1087
     30 H6          4.5537    3.9528    0.0030 H         1 <0>         0.1350
     31 H7          2.4007    5.1495    0.0422 H         1 <0>         0.1379
     32 H8          0.2922    3.8881    0.0376 H         1 <0>         0.1276
     33 H9         -1.2051    2.8363    0.0978 H         1 <0>         0.2348
     34 H10        -3.3802    2.6843   -1.2217 H         1 <0>         0.1358
     35 H11        -5.4857    1.4241   -1.4107 H         1 <0>         0.1529
     36 H12        -3.7880   -1.7703    0.8494 H         1 <0>         0.1567
     37 H13        -1.6745   -0.5231    1.0349 H         1 <0>         0.1754
     38 H14        -6.8757   -0.0832    1.5285 H         1 <0>         0.2288
     39 H15        -8.0911   -1.1103    0.9897 H         1 <0>         0.2422
     40 H16         4.6119   -1.3592    1.3229 H         1 <0>         0.0897
     41 H17         4.1764   -2.3931   -0.0590 H         1 <0>         0.0956
     42 H18         5.7526   -1.5666   -0.0277 H         1 <0>         0.0863
@<TRIPOS>BOND
     1    1    2 1
     2    1   25 1
     3    1   26 1
     4    1   27 1
     5    2   10 1
     6    2    3 1
     7    2   24 1
     8    3    4 1
     9    3   28 1
    10    3   29 1
    11    4    9 ar
    12    4    5 ar
    13    5    6 ar
    14    5   30 1
    15    6    7 ar
    16    6   31 1
    17    7    8 ar
    18    7   32 1
    19    8    9 ar
    20    8   11 1
    21    9   10 1
    22   11   12 2
    23   11   13 am
    24   13   14 1
    25   13   33 1
    26   14   19 ar
    27   14   15 ar
    28   15   16 ar
    29   15   34 1
    30   16   17 ar
    31   16   35 1
    32   17   18 ar
    33   17   20 1
    34   18   19 ar
    35   18   36 1
    36   19   37 1
    37   20   21 2
    38   20   22 2
    39   20   23 1
    40   23   38 1
    41   23   39 1
    42   24   40 1
    43   24   41 1
    44   24   42 1
@<TRIPOS>MOLECULE
ZINC00131422
   43    45     0     0     0
SMALL
USER_CHARGES

@<TRIPOS>ATOM
      1 C1          3.9581    2.2796   -4.2255 C.ar      1 <0>        -0.1505
      2 C2          4.8520    2.3105   -3.1704 C.ar      1 <0>        -0.1023
      3 C3          4.4048    2.1040   -1.8834 C.ar      1 <0>        -0.1757
      4 C4          3.0522    1.8627   -1.6352 C.ar      1 <0>         0.0484
      5 C5          2.1616    1.8370   -2.6939 C.ar      1 <0>        -0.0911
      6 C6          2.6184    2.0484   -3.9854 C.ar      1 <0>        -0.0991
      7 C7          0.6876    1.5898   -2.4929 C.3       1 <0>        -0.1169
      8 C8          0.4481    1.0140   -1.0953 C.3       1 <0>        -0.1597
      9 C9          1.2330    1.8682   -0.0919 C.3       1 <0>        -0.0823
     10 N1          2.6645    1.6528   -0.3127 N.pl3     1 <0>        -0.1755
     11 C10         3.4677    2.4695    0.6071 C.3       1 <0>        -0.0970
     12 C11         3.3547    3.9213    0.2190 C.2       1 <0>         0.2670
     13 O1          2.5975    4.2548   -0.6679 O.2       1 <0>        -0.3310
     14 N2          4.0951    4.8491    0.8573 N.am      1 <0>        -0.3319
     15 C12         3.9133    6.2068    0.5719 C.ar      1 <0>         0.1224
     16 C13         4.9922    7.0796    0.6254 C.ar      1 <0>        -0.1889
     17 C14         4.8107    8.4179    0.3366 C.ar      1 <0>        -0.0068
     18 C15         3.5540    8.8915    0.0071 C.ar      1 <0>        -0.7824
     19 C16         2.4765    8.0261   -0.0410 C.ar      1 <0>        -0.0076
     20 C17         2.6526    6.6854    0.2402 C.ar      1 <0>        -0.1548
     21 S1          3.3252   10.6011   -0.3529 S.o2      1 <0>         2.7635
     22 O2          4.5880   11.1004   -0.7716 O.2       1 <0>        -0.9187
     23 O3          2.1625   10.6931   -1.1645 O.2       1 <0>        -0.9161
     24 N3          2.9667   11.3585    1.0754 N.pl3     1 <0>        -0.9321
     25 H1          4.3070    2.4398   -5.2349 H         1 <0>         0.1284
     26 H2          5.8997    2.4961   -3.3552 H         1 <0>         0.1266
     27 H3          5.1050    2.1286   -1.0616 H         1 <0>         0.1216
     28 H4          1.9217    2.0285   -4.8104 H         1 <0>         0.1292
     29 H5          0.1448    2.5294   -2.5960 H         1 <0>         0.0964
     30 H6          0.3328    0.8824   -3.2424 H         1 <0>         0.0894
     31 H7         -0.6153    1.0510   -0.8585 H         1 <0>         0.0866
     32 H8          0.7995   -0.0171   -1.0561 H         1 <0>         0.0991
     33 H9          0.9941    2.9210   -0.2421 H         1 <0>         0.0954
     34 H10         0.9710    1.5725    0.9240 H         1 <0>         0.0883
     35 H11         3.1021    2.3361    1.6252 H         1 <0>         0.1168
     36 H12         4.5111    2.1588    0.5520 H         1 <0>         0.1213
     37 H13         4.7540    4.5756    1.5146 H         1 <0>         0.2349
     38 H14         5.9730    6.7113    0.8878 H         1 <0>         0.1372
     39 H15         5.6504    9.0962    0.3726 H         1 <0>         0.1546
     40 H16         1.4963    8.3989   -0.2991 H         1 <0>         0.1572
     41 H17         1.8108    6.0099    0.2018 H         1 <0>         0.1643
     42 H18         2.9195   10.8460    1.8976 H         1 <0>         0.2286
     43 H19         2.8038   12.3146    1.0898 H         1 <0>         0.2431
@<TRIPOS>BOND
     1    1    6 ar
     2    1    2 ar
     3    1   25 1
     4    2    3 ar
     5    2   26 1
     6    3    4 ar
     7    3   27 1
     8    4   10 1
     9    4    5 ar
    10    5    6 ar
    11    5    7 1
    12    6   28 1
    13    7    8 1
    14    7   29 1
    15    7   30 1
    16    8    9 1
    17    8   31 1
    18    8   32 1
    19    9   10 1
    20    9   33 1
    21    9   34 1
    22   10   11 1
    23   11   12 1
    24   11   35 1
    25   11   36 1
    26   12   13 2
    27   12   14 am
    28   14   15 1
    29   14   37 1
    30   15   20 ar
    31   15   16 ar
    32   16   17 ar
    33   16   38 1
    34   17   18 ar
    35   17   39 1
    36   18   19 ar
    37   18   21 1
    38   19   20 ar
    39   19   40 1
    40   20   41 1
    41   21   22 2
    42   21   23 2
    43   21   24 1
    44   24   42 1
    45   24   43 1
@<TRIPOS>MOLECULE
ZINC00131561
   37    39     0     0     0
SMALL
USER_CHARGES

@<TRIPOS>ATOM
      1 C1         -0.8569   15.1302    0.0903 C.3       1 <0>        -0.1708
      2 C2         -1.6599   13.8550    0.0899 C.2       1 <0>         0.0762
      3 C3         -3.0603   13.9130    0.1028 C.2       1 <0>        -0.2564
      4 C4         -3.7722   12.7579    0.1032 C.2       1 <0>         0.1051
      5 N1         -3.1054   11.5708    0.0902 N.pl3     1 <0>        -0.1057
      6 C5         -1.7369   11.5490    0.0778 C.2       1 <0>         0.1117
      7 N2         -1.0441   12.6958    0.0779 N.2       1 <0>        -0.1501
      8 N3         -1.3601   10.2787    0.0723 N.2       1 <0>        -0.2286
      9 C6         -2.4362    9.4889    0.0726 C.2       1 <0>        -0.0412
     10 N4         -3.5257   10.2343    0.0865 N.2       1 <0>        -0.0733
     11 C7         -2.4117    8.0086    0.0649 C.2       1 <0>         0.4101
     12 O1         -3.4542    7.3834    0.0715 O.2       1 <0>        -0.2905
     13 N5         -1.2336    7.3541    0.0506 N.am      1 <0>        -0.3130
     14 N6         -1.2104    5.9534    0.0433 N.2       1 <0>         0.0051
     15 C8         -0.0759    5.3232    0.0295 C.2       1 <0>        -0.1054
     16 C9         -0.0515    3.8486    0.0218 C.ar      1 <0>        -0.0349
     17 C10        -1.2482    3.1273    0.0299 C.ar      1 <0>        -0.0969
     18 C11        -1.2211    1.7482    0.0173 C.ar      1 <0>        -0.1223
     19 C12        -0.0126    1.0758    0.0080 C.ar      1 <0>        -0.1403
     20 C13         1.1818    1.7835    0.0004 C.ar      1 <0>         0.0640
     21 C14         1.1673    3.1680    0.0070 C.ar      1 <0>        -0.1348
     22 O2          2.3661    1.1169   -0.0141 O.3       1 <0>        -0.2903
     23 C15        -5.2788   12.7884    0.1167 C.3       1 <0>        -0.1864
     24 H1         -0.6722   15.4436   -0.9372 H         1 <0>         0.1063
     25 H2         -1.4120   15.9089    0.6134 H         1 <0>         0.0924
     26 H3          0.0942   14.9606    0.5949 H         1 <0>         0.1130
     27 H4         -3.5671   14.8667    0.1120 H         1 <0>         0.1648
     28 H5         -0.4017    7.8530    0.0453 H         1 <0>         0.2317
     29 H6          0.8503    5.8786    0.0236 H         1 <0>         0.1220
     30 H7         -2.1937    3.6491    0.0414 H         1 <0>         0.1612
     31 H8         -2.1467    1.1916    0.0191 H         1 <0>         0.1381
     32 H9          0.0021   -0.0041    0.0020 H         1 <0>         0.1404
     33 H10         2.0958    3.7196    0.0011 H         1 <0>         0.1404
     34 H11         2.7006    0.9285   -0.9016 H         1 <0>         0.2267
     35 H12        -5.6330   12.7896    1.1475 H         1 <0>         0.1113
     36 H13        -5.6286   13.6886   -0.3887 H         1 <0>         0.0990
     37 H14        -5.6647   11.9090   -0.3990 H         1 <0>         0.1213
@<TRIPOS>BOND
     1    1    2 1
     2    1   24 1
     3    1   25 1
     4    1   26 1
     5    2    7 2
     6    2    3 1
     7    3    4 2
     8    3   27 1
     9    4    5 1
    10    4   23 1
    11    5   10 1
    12    5    6 1
    13    6    7 1
    14    6    8 2
    15    8    9 1
    16    9   10 2
    17    9   11 1
    18   11   12 2
    19   11   13 am
    20   13   14 1
    21   13   28 1
    22   14   15 2
    23   15   16 1
    24   15   29 1
    25   16   21 ar
    26   16   17 ar
    27   17   18 ar
    28   17   30 1
    29   18   19 ar
    30   18   31 1
    31   19   20 ar
    32   19   32 1
    33   20   21 ar
    34   20   22 1
    35   21   33 1
    36   22   34 1
    37   23   35 1
    38   23   36 1
    39   23   37 1
@<TRIPOS>MOLECULE
ZINC00131980
   37    39     0     0     0
SMALL
USER_CHARGES

@<TRIPOS>ATOM
      1 C1          2.5046    1.0693   -0.0161 C.3       1 <0>        -0.1708
      2 C2          1.1870    1.8007    0.0004 C.2       1 <0>         0.0761
      3 C3         -0.0126    1.0758    0.0080 C.2       1 <0>        -0.2565
      4 C4         -1.1925    1.7457    0.0171 C.2       1 <0>         0.1051
      5 N1         -1.1793    3.1072    0.0291 N.pl3     1 <0>        -0.1056
      6 C5          0.0098    3.7849    0.0214 C.2       1 <0>         0.1115
      7 N2          1.1690    3.1132    0.0072 N.2       1 <0>        -0.1501
      8 N3         -0.2711    5.0799    0.0298 N.2       1 <0>        -0.2287
      9 C6         -1.5945    5.2543    0.0426 C.2       1 <0>        -0.0411
     10 N4         -2.1908    4.0765    0.0426 N.2       1 <0>        -0.0732
     11 C7         -2.2853    6.5637    0.0555 C.2       1 <0>         0.4099
     12 O1         -3.5001    6.6100    0.0674 O.2       1 <0>        -0.2909
     13 N5         -1.5675    7.7044    0.0541 N.am      1 <0>        -0.3130
     14 N6         -2.2212    8.9435    0.0663 N.2       1 <0>         0.0021
     15 C8         -1.5298   10.0422    0.0650 C.2       1 <0>        -0.1034
     16 C9         -2.2176   11.3459    0.0779 C.ar      1 <0>        -0.0591
     17 C10        -3.6140   11.4016    0.0857 C.ar      1 <0>        -0.0741
     18 C11        -4.2526   12.6225    0.1021 C.ar      1 <0>        -0.1608
     19 C12        -3.5107   13.7968    0.1007 C.ar      1 <0>         0.0843
     20 C13        -2.1227   13.7464    0.0880 C.ar      1 <0>        -0.1611
     21 C14        -1.4753   12.5300    0.0764 C.ar      1 <0>        -0.0945
     22 O2         -4.1446   14.9983    0.1112 O.3       1 <0>        -0.2924
     23 C15        -2.4985    0.9938    0.0198 C.3       1 <0>        -0.1864
     24 H1          2.8124    0.8985   -1.0477 H         1 <0>         0.1063
     25 H2          3.2591    1.6684    0.4938 H         1 <0>         0.1129
     26 H3          2.3952    0.1121    0.4937 H         1 <0>         0.0923
     27 H4          0.0021   -0.0041    0.0020 H         1 <0>         0.1647
     28 H5         -0.5982    7.6675    0.0446 H         1 <0>         0.2313
     29 H6         -0.4506   10.0011    0.0544 H         1 <0>         0.1208
     30 H7         -4.1916   10.4891    0.0824 H         1 <0>         0.1629
     31 H8         -5.3316   12.6665    0.1120 H         1 <0>         0.1451
     32 H9         -1.5499   14.6620    0.0869 H         1 <0>         0.1420
     33 H10        -0.3961   12.4918    0.0659 H         1 <0>         0.1334
     34 H11        -4.3360   15.3497   -0.7692 H         1 <0>         0.2296
     35 H12        -2.8084    0.8074    1.0480 H         1 <0>         0.1114
     36 H13        -3.2600    1.5864   -0.4874 H         1 <0>         0.1213
     37 H14        -2.3719    0.0438   -0.4995 H         1 <0>         0.0990
@<TRIPOS>BOND
     1    1    2 1
     2    1   24 1
     3    1   25 1
     4    1   26 1
     5    2    7 2
     6    2    3 1
     7    3    4 2
     8    3   27 1
     9    4    5 1
    10    4   23 1
    11    5   10 1
    12    5    6 1
    13    6    7 1
    14    6    8 2
    15    8    9 1
    16    9   10 2
    17    9   11 1
    18   11   12 2
    19   11   13 am
    20   13   14 1
    21   13   28 1
    22   14   15 2
    23   15   16 1
    24   15   29 1
    25   16   21 ar
    26   16   17 ar
    27   17   18 ar
    28   17   30 1
    29   18   19 ar
    30   18   31 1
    31   19   20 ar
    32   19   22 1
    33   20   21 ar
    34   20   32 1
    35   21   33 1
    36   22   34 1
    37   23   35 1
    38   23   36 1
    39   23   37 1
@<TRIPOS>MOLECULE
ZINC00136283
   38    39     0     0     0
SMALL
USER_CHARGES

@<TRIPOS>ATOM
      1 C1         -9.3222    4.5699   -4.5455 C.3       1 <0>        -0.0506
      2 O1         -8.3476    5.0052   -3.5611 O.3       1 <0>        -0.2662
      3 C2         -7.2893    4.1988   -3.3502 C.2       1 <0>         0.3524
      4 O2         -7.1836    3.1604   -3.9715 O.2       1 <0>        -0.3647
      5 C3         -6.2573    4.5773   -2.3631 C.ar      1 <0>        -0.1127
      6 C4         -6.3766    5.7705   -1.6470 C.ar      1 <0>        -0.0747
      7 C5         -5.4116    6.1213   -0.7255 C.ar      1 <0>        -0.1406
      8 C6         -4.3275    5.2926   -0.5030 C.ar      1 <0>        -0.0575
      9 C7         -4.1964    4.1060   -1.2144 C.ar      1 <0>         0.0240
     10 C8         -5.1604    3.7440   -2.1427 C.ar      1 <0>        -0.0769
     11 N1         -3.0945    3.2739   -0.9896 N.pl3     1 <0>        -0.2457
     12 C9         -1.8671    3.8084   -0.8333 C.2       1 <0>         0.2069
     13 S1         -1.6318    5.4901   -1.0509 S.2       1 <0>        -0.3896
     14 N2         -0.8250    3.0190   -0.5056 N.pl3     1 <0>        -0.2683
     15 N3         -1.0176    1.6427   -0.3275 N.2       1 <0>        -0.0813
     16 C10        -0.0453    0.9028    0.1102 C.2       1 <0>        -0.0568
     17 C11         1.0143    1.4964    0.9459 C.ar      1 <0>        -0.1323
     18 C12         2.2120    0.8071    1.1533 C.ar      1 <0>        -0.0823
     19 C13         3.2019    1.3685    1.9305 C.ar      1 <0>        -0.1548
     20 C14         3.0061    2.6124    2.5165 C.ar      1 <0>         0.0961
     21 C15         1.8151    3.2987    2.3178 C.ar      1 <0>        -0.1465
     22 C16         0.8218    2.7476    1.5375 C.ar      1 <0>        -0.1155
     23 O3          3.9824    3.1592    3.2869 O.3       1 <0>        -0.2885
     24 H1         -8.8365    4.4642   -5.5155 H         1 <0>         0.0837
     25 H2         -9.7410    3.6103   -4.2424 H         1 <0>         0.0817
     26 H3        -10.1206    5.3084   -4.6174 H         1 <0>         0.1029
     27 H4         -7.2244    6.4183   -1.8143 H         1 <0>         0.1488
     28 H5         -5.5058    7.0442   -0.1725 H         1 <0>         0.1425
     29 H6         -3.5778    5.5704    0.2231 H         1 <0>         0.1688
     30 H7         -5.0623    2.8202   -2.6935 H         1 <0>         0.1566
     31 H8         -3.2137    2.3122   -0.9462 H         1 <0>         0.2529
     32 H9          0.0583    3.4037   -0.3932 H         1 <0>         0.2733
     33 H10        -0.0101   -0.1469   -0.1414 H         1 <0>         0.1858
     34 H11         2.3632   -0.1623    0.7019 H         1 <0>         0.1389
     35 H12         4.1298    0.8386    2.0874 H         1 <0>         0.1480
     36 H13         1.6670    4.2655    2.7758 H         1 <0>         0.1533
     37 H14        -0.1042    3.2818    1.3838 H         1 <0>         0.1536
     38 H15         3.9208    2.9268    4.2236 H         1 <0>         0.2353
@<TRIPOS>BOND
     1    1    2 1
     2    1   24 1
     3    1   25 1
     4    1   26 1
     5    2    3 1
     6    3    4 2
     7    3    5 1
     8    5   10 ar
     9    5    6 ar
    10    6    7 ar
    11    6   27 1
    12    7    8 ar
    13    7   28 1
    14    8    9 ar
    15    8   29 1
    16    9   10 ar
    17    9   11 1
    18   10   30 1
    19   11   12 1
    20   11   31 1
    21   12   13 2
    22   12   14 1
    23   14   15 1
    24   14   32 1
    25   15   16 2
    26   16   17 1
    27   16   33 1
    28   17   22 ar
    29   17   18 ar
    30   18   19 ar
    31   18   34 1
    32   19   20 ar
    33   19   35 1
    34   20   21 ar
    35   20   23 1
    36   21   22 ar
    37   21   36 1
    38   22   37 1
    39   23   38 1
@<TRIPOS>MOLECULE
ZINC00136336
   41    42     0     0     0
SMALL
USER_CHARGES

@<TRIPOS>ATOM
      1 C1          1.2154    2.4087    6.0859 C.3       1 <0>        -0.2387
      2 C2          0.1068    3.0298    5.2759 C.2       1 <0>         0.3022
      3 O1         -0.1901    4.1933    5.4464 O.2       1 <0>        -0.3526
      4 N1         -0.5548    2.2924    4.3621 N.am      1 <0>        -0.3298
      5 C3         -1.6428    2.8378    3.6813 C.ar      1 <0>         0.0861
      6 C4         -1.6423    4.1864    3.3391 C.ar      1 <0>        -0.1376
      7 C5         -2.7122    4.7268    2.6621 C.ar      1 <0>        -0.0928
      8 C6         -3.8047    3.9214    2.3281 C.ar      1 <0>        -0.1484
      9 C7         -3.8044    2.5683    2.6785 C.ar      1 <0>        -0.0457
     10 C8         -2.7288    2.0333    3.3509 C.ar      1 <0>        -0.1736
     11 C9         -4.9555    4.4982    1.6070 C.2       1 <0>         0.3603
     12 O2         -5.9053    3.7961    1.3167 O.2       1 <0>        -0.3249
     13 N2         -4.9542    5.8031    1.2699 N.am      1 <0>        -0.3404
     14 N3         -6.0469    6.3508    0.5851 N.2       1 <0>         0.0257
     15 C10        -5.9868    7.5663    0.1335 C.2       1 <0>        -0.1197
     16 C11        -4.6863    8.2538    0.0384 C.ar      1 <0>        -0.0652
     17 C12        -3.5043    7.5112   -0.0232 C.ar      1 <0>        -0.1753
     18 C13        -2.2892    8.1562   -0.1170 C.ar      1 <0>        -0.1172
     19 C14        -2.2358    9.5424   -0.1398 C.ar      1 <0>         0.0533
     20 C15        -3.4098   10.2894   -0.0735 C.ar      1 <0>         0.0766
     21 C16        -4.6321    9.6499    0.0153 C.ar      1 <0>        -0.1916
     22 O3         -3.3535   11.6480   -0.0966 O.3       1 <0>        -0.1973
     23 C17        -4.5960   12.3502   -0.0257 C.3       1 <0>        -0.0667
     24 O4         -1.0348   10.1732   -0.2267 O.3       1 <0>        -0.2745
     25 H1          2.1633    2.5377    5.5635 H         1 <0>         0.1074
     26 H2          1.2689    2.8935    7.0607 H         1 <0>         0.1209
     27 H3          1.0160    1.3454    6.2194 H         1 <0>         0.0862
     28 H4         -0.2716    1.3837    4.1751 H         1 <0>         0.2355
     29 H5         -0.7997    4.8091    3.6014 H         1 <0>         0.1687
     30 H6         -2.7093    5.7727    2.3929 H         1 <0>         0.1286
     31 H7         -4.6468    1.9431    2.4216 H         1 <0>         0.1609
     32 H8         -2.7279    0.9879    3.6219 H         1 <0>         0.1368
     33 H9         -4.1968    6.3631    1.5014 H         1 <0>         0.2305
     34 H10        -6.8896    8.0739   -0.1726 H         1 <0>         0.1841
     35 H11        -3.5427    6.4321   -0.0014 H         1 <0>         0.1550
     36 H12        -1.3765    7.5811   -0.1686 H         1 <0>         0.1492
     37 H13        -5.5429   10.2279    0.0664 H         1 <0>         0.1442
     38 H14        -4.4088   13.4236   -0.0532 H         1 <0>         0.1135
     39 H15        -5.2214   12.0686   -0.8728 H         1 <0>         0.0709
     40 H16        -5.1056   12.0940    0.9032 H         1 <0>         0.0673
     41 H17        -0.6299   10.3678    0.6296 H         1 <0>         0.2279
@<TRIPOS>BOND
     1    1    2 1
     2    1   25 1
     3    1   26 1
     4    1   27 1
     5    2    3 2
     6    2    4 am
     7    4    5 1
     8    4   28 1
     9    5   10 ar
    10    5    6 ar
    11    6    7 ar
    12    6   29 1
    13    7    8 ar
    14    7   30 1
    15    8    9 ar
    16    8   11 1
    17    9   10 ar
    18    9   31 1
    19   10   32 1
    20   11   12 2
    21   11   13 am
    22   13   14 1
    23   13   33 1
    24   14   15 2
    25   15   16 1
    26   15   34 1
    27   16   21 ar
    28   16   17 ar
    29   17   18 ar
    30   17   35 1
    31   18   19 ar
    32   18   36 1
    33   19   20 ar
    34   19   24 1
    35   20   21 ar
    36   20   22 1
    37   21   37 1
    38   22   23 1
    39   23   38 1
    40   23   39 1
    41   23   40 1
    42   24   41 1
@<TRIPOS>MOLECULE
ZINC00136339
   41    42     0     0     0
SMALL
USER_CHARGES

@<TRIPOS>ATOM
      1 C1          2.3467    0.8623    0.7482 C.3       1 <0>        -0.2387
      2 C2          1.0252    1.5748    0.6170 C.2       1 <0>         0.3021
      3 O1          0.8943    2.6961    1.0600 O.2       1 <0>        -0.3524
      4 N1         -0.0111    0.9658    0.0074 N.am      1 <0>        -0.3295
      5 C3         -1.2584    1.5880   -0.0353 C.ar      1 <0>         0.0866
      6 C4         -1.3400    2.9720   -0.1525 C.ar      1 <0>        -0.1377
      7 C5         -2.5697    3.5890   -0.2006 C.ar      1 <0>        -0.0901
      8 C6         -3.7370    2.8244   -0.1205 C.ar      1 <0>        -0.1480
      9 C7         -3.6513    1.4348    0.0029 C.ar      1 <0>        -0.0454
     10 C8         -2.4183    0.8239    0.0452 C.ar      1 <0>        -0.1738
     11 C9         -5.0567    3.4826   -0.1666 C.2       1 <0>         0.3670
     12 O2         -6.0716    2.8159   -0.0972 O.2       1 <0>        -0.3252
     13 N2         -5.1376    4.8227   -0.2857 N.am      1 <0>        -0.3288
     14 N3         -6.3907    5.4477   -0.3294 N.2       1 <0>         0.0136
     15 C10        -6.4686    6.7383   -0.4441 C.2       1 <0>        -0.1164
     16 C11        -7.7871    7.3960   -0.4902 C.ar      1 <0>        -0.0180
     17 C12        -8.9542    6.6312   -0.4163 C.ar      1 <0>        -0.1125
     18 C13       -10.1865    7.2488   -0.4548 C.ar      1 <0>        -0.1271
     19 C14       -10.2714    8.6281   -0.5773 C.ar      1 <0>         0.0553
     20 C15        -9.1120    9.3966   -0.6567 C.ar      1 <0>         0.0659
     21 C16        -7.8730    8.7852   -0.6135 C.ar      1 <0>        -0.1950
     22 O3         -9.1993   10.7484   -0.7763 O.3       1 <0>        -0.1992
     23 C17        -7.9703   11.4737   -0.8521 C.3       1 <0>        -0.0652
     24 O4        -11.4888    9.2313   -0.6204 O.3       1 <0>        -0.2767
     25 H1          2.9657    1.0817   -0.1217 H         1 <0>         0.1074
     26 H2          2.8547    1.2021    1.6507 H         1 <0>         0.1210
     27 H3          2.1754   -0.2124    0.8105 H         1 <0>         0.0861
     28 H4          0.1117    0.0966   -0.4052 H         1 <0>         0.2355
     29 H5         -0.4376    3.5626   -0.2099 H         1 <0>         0.1693
     30 H6         -2.6324    4.6630   -0.2960 H         1 <0>         0.1263
     31 H7         -4.5512    0.8409    0.0647 H         1 <0>         0.1608
     32 H8         -2.3513   -0.2498    0.1405 H         1 <0>         0.1369
     33 H9         -4.3282    5.3544   -0.3410 H         1 <0>         0.2099
     34 H10        -5.5674    7.3304   -0.5057 H         1 <0>         0.1145
     35 H11        -8.8911    5.5569   -0.3251 H         1 <0>         0.1640
     36 H12       -11.0878    6.6570   -0.3935 H         1 <0>         0.1494
     37 H13        -6.9736    9.3798   -0.6747 H         1 <0>         0.1377
     38 H14        -7.3876   11.2966    0.0519 H         1 <0>         0.0688
     39 H15        -7.4037   11.1388   -1.7210 H         1 <0>         0.0646
     40 H16        -8.1821   12.5388   -0.9450 H         1 <0>         0.1107
     41 H17       -11.8490    9.3269   -1.5127 H         1 <0>         0.2262
@<TRIPOS>BOND
     1    1    2 1
     2    1   25 1
     3    1   26 1
     4    1   27 1
     5    2    3 2
     6    2    4 am
     7    4    5 1
     8    4   28 1
     9    5   10 ar
    10    5    6 ar
    11    6    7 ar
    12    6   29 1
    13    7    8 ar
    14    7   30 1
    15    8    9 ar
    16    8   11 1
    17    9   10 ar
    18    9   31 1
    19   10   32 1
    20   11   12 2
    21   11   13 am
    22   13   14 1
    23   13   33 1
    24   14   15 2
    25   15   16 1
    26   15   34 1
    27   16   21 ar
    28   16   17 ar
    29   17   18 ar
    30   17   35 1
    31   18   19 ar
    32   18   36 1
    33   19   20 ar
    34   19   24 1
    35   20   21 ar
    36   20   22 1
    37   21   37 1
    38   22   23 1
    39   23   38 1
    40   23   39 1
    41   23   40 1
    42   24   41 1
@<TRIPOS>MOLECULE
ZINC00138774
   44    45     0     0     0
SMALL
USER_CHARGES

@<TRIPOS>ATOM
      1 C1          3.7301    0.5896    1.3500 C.3       1 <0>        -0.1880
      2 C2          2.5932   -0.1034    0.5964 C.3       1 <0>        -0.0915
      3 C3          2.2282   -1.4066    1.3101 C.3       1 <0>        -0.2025
      4 C4          3.0431   -0.4133   -0.8328 C.3       1 <0>        -0.2035
      5 C5          1.3897    0.8028    0.5588 C.2       1 <0>         0.3128
      6 O1          1.4367    1.8954    1.0831 O.2       1 <0>        -0.3501
      7 N1          0.2611    0.3991   -0.0575 N.am      1 <0>        -0.3269
      8 C6         -0.8805    1.1987   -0.0154 C.ar      1 <0>         0.0929
      9 C7         -0.7583    2.5845   -0.0326 C.ar      1 <0>        -0.1391
     10 C8         -1.8836    3.3768    0.0031 C.ar      1 <0>        -0.0867
     11 C9         -3.1493    2.7877    0.0679 C.ar      1 <0>        -0.1559
     12 C10        -3.2682    1.3953    0.0908 C.ar      1 <0>        -0.0421
     13 C11        -2.1390    0.6089    0.0495 C.ar      1 <0>        -0.1754
     14 C12        -4.3574    3.6338    0.1124 C.2       1 <0>         0.3534
     15 O2         -5.4579    3.1198    0.1692 O.2       1 <0>        -0.3509
     16 N2         -4.2411    4.9764    0.0903 N.am      1 <0>        -0.3267
     17 C13        -5.3776    5.7791    0.2302 C.ar      1 <0>         0.0626
     18 C14        -5.2966    6.9881    0.9096 C.ar      1 <0>        -0.1252
     19 C15        -6.4207    7.7784    1.0460 C.ar      1 <0>        -0.1178
     20 C16        -7.6263    7.3674    0.5070 C.ar      1 <0>        -0.0903
     21 C17        -7.7103    6.1649   -0.1702 C.ar      1 <0>        -0.0937
     22 C18        -6.5884    5.3722   -0.3147 C.ar      1 <0>        -0.0749
     23 N3         -9.0025    5.7293   -0.7458 N.pl3     1 <0>         0.5494
     24 O3         -9.9911    6.4300   -0.6227 O.2       1 <0>        -0.3605
     25 O4         -9.0772    4.6701   -1.3425 O.3       1 <0>        -0.3463
     26 H1          3.4096    0.8104    2.3682 H         1 <0>         0.0924
     27 H2          4.6006   -0.0659    1.3772 H         1 <0>         0.0766
     28 H3          3.9902    1.5180    0.8416 H         1 <0>         0.0900
     29 H4          1.4182   -1.9004    0.7732 H         1 <0>         0.0698
     30 H5          3.0987   -2.0621    1.3373 H         1 <0>         0.0875
     31 H6          1.9077   -1.1858    2.3282 H         1 <0>         0.0893
     32 H7          3.3031    0.5151   -1.3412 H         1 <0>         0.0871
     33 H8          3.9136   -1.0688   -0.8056 H         1 <0>         0.0886
     34 H9          2.2331   -0.9071   -1.3696 H         1 <0>         0.0691
     35 H10         0.2442   -0.4458   -0.5337 H         1 <0>         0.2380
     36 H11         0.2203    3.0392   -0.0785 H         1 <0>         0.1709
     37 H12        -1.7882    4.4525   -0.0151 H         1 <0>         0.1258
     38 H13        -4.2448    0.9368    0.1404 H         1 <0>         0.1611
     39 H14        -2.2301   -0.4671    0.0671 H         1 <0>         0.1385
     40 H15        -3.3690    5.3858   -0.0227 H         1 <0>         0.2398
     41 H16        -4.3554    7.3097    1.3303 H         1 <0>         0.1411
     42 H17        -6.3583    8.7185    1.5738 H         1 <0>         0.1479
     43 H18        -8.5040    7.9874    0.6151 H         1 <0>         0.1645
     44 H19        -6.6537    4.4349   -0.8473 H         1 <0>         0.1986
@<TRIPOS>BOND
     1    1    2 1
     2    1   26 1
     3    1   27 1
     4    1   28 1
     5    2    3 1
     6    2    4 1
     7    2    5 1
     8    3   29 1
     9    3   30 1
    10    3   31 1
    11    4   32 1
    12    4   33 1
    13    4   34 1
    14    5    6 2
    15    5    7 am
    16    7    8 1
    17    7   35 1
    18    8   13 ar
    19    8    9 ar
    20    9   10 ar
    21    9   36 1
    22   10   11 ar
    23   10   37 1
    24   11   12 ar
    25   11   14 1
    26   12   13 ar
    27   12   38 1
    28   13   39 1
    29   14   15 2
    30   14   16 am
    31   16   17 1
    32   16   40 1
    33   17   22 ar
    34   17   18 ar
    35   18   19 ar
    36   18   41 1
    37   19   20 ar
    38   19   42 1
    39   20   21 ar
    40   20   43 1
    41   21   22 ar
    42   21   23 1
    43   22   44 1
    44   23   24 2
    45   23   25 1
@<TRIPOS>MOLECULE
ZINC00138921
   40    42     0     0     0
SMALL
USER_CHARGES

@<TRIPOS>ATOM
      1 C1          4.3964    7.2114    5.3281 C.3       1 <0>        -0.1401
      2 C2          5.5791    6.4089    5.8060 C.2       1 <0>         0.0345
      3 N1          6.4625    6.8236    6.6665 N.2       1 <0>        -0.1700
      4 C3          7.3897    5.8532    6.8724 C.ar      1 <0>        -0.0392
      5 C4          8.5304    5.7649    7.6747 C.ar      1 <0>        -0.0688
      6 C5          9.2733    4.6185    7.6778 C.ar      1 <0>        -0.1457
      7 C6          8.9147    3.5405    6.8807 C.ar      1 <0>        -0.1137
      8 C7          7.7962    3.6069    6.0777 C.ar      1 <0>        -0.1245
      9 C8          7.0244    4.7608    6.0677 C.ar      1 <0>        -0.0360
     10 N2          5.8783    5.1452    5.4008 N.pl3     1 <0>        -0.1693
     11 C9          5.1213    4.3393    4.4398 C.3       1 <0>        -0.0301
     12 C10         5.6480    4.5885    3.0501 C.2       1 <0>         0.2799
     13 O1          6.5658    5.3633    2.8791 O.2       1 <0>        -0.2848
     14 N3          5.0996    3.9507    1.9971 N.am      1 <0>        -0.3427
     15 N4          5.5893    4.1824    0.7050 N.2       1 <0>         0.0180
     16 C11         4.9830    3.6675   -0.3210 C.2       1 <0>        -0.1034
     17 C12         3.5704    3.2631   -0.2154 C.ar      1 <0>        -0.1357
     18 C13         2.7411    3.8547    0.7411 C.ar      1 <0>        -0.1106
     19 C14         1.4208    3.4734    0.8369 C.ar      1 <0>        -0.1645
     20 C15         0.9095    2.5016   -0.0154 C.ar      1 <0>         0.1005
     21 C16         1.7261    1.9042   -0.9644 C.ar      1 <0>        -0.1838
     22 C17         3.0528    2.2826   -1.0739 C.ar      1 <0>         0.1100
     23 O2          3.8520    1.7027   -2.0061 O.3       1 <0>        -0.2869
     24 O3         -0.3936    2.1314    0.0852 O.3       1 <0>        -0.2901
     25 H1          3.5431    7.0244    5.9800 H         1 <0>         0.0924
     26 H2          4.6446    8.2725    5.3499 H         1 <0>         0.1195
     27 H3          4.1461    6.9177    4.3087 H         1 <0>         0.0810
     28 H4          8.8177    6.5973    8.3000 H         1 <0>         0.1411
     29 H5         10.1522    4.5527    8.3020 H         1 <0>         0.1314
     30 H6          9.5163    2.6436    6.8893 H         1 <0>         0.1307
     31 H7          7.5213    2.7650    5.4596 H         1 <0>         0.1217
     32 H8          4.0678    4.6156    4.4841 H         1 <0>         0.1145
     33 H9          5.2304    3.2830    4.6858 H         1 <0>         0.1218
     34 H10         4.3658    3.3312    2.1337 H         1 <0>         0.2176
     35 H11         5.5142    3.5356   -1.2520 H         1 <0>         0.1987
     36 H12         3.1349    4.6101    1.4049 H         1 <0>         0.1489
     37 H13         0.7807    3.9314    1.5765 H         1 <0>         0.1463
     38 H14         1.3251    1.1465   -1.6213 H         1 <0>         0.1563
     39 H15         4.2450    0.8662   -1.7218 H         1 <0>         0.2374
     40 H16        -0.9938    2.6512   -0.4668 H         1 <0>         0.2375
@<TRIPOS>BOND
     1    1    2 1
     2    1   25 1
     3    1   26 1
     4    1   27 1
     5    2   10 1
     6    2    3 2
     7    3    4 1
     8    4    9 ar
     9    4    5 ar
    10    5    6 ar
    11    5   28 1
    12    6    7 ar
    13    6   29 1
    14    7    8 ar
    15    7   30 1
    16    8    9 ar
    17    8   31 1
    18    9   10 1
    19   10   11 1
    20   11   12 1
    21   11   32 1
    22   11   33 1
    23   12   13 2
    24   12   14 am
    25   14   15 1
    26   14   34 1
    27   15   16 2
    28   16   17 1
    29   16   35 1
    30   17   22 ar
    31   17   18 ar
    32   18   19 ar
    33   18   36 1
    34   19   20 ar
    35   19   37 1
    36   20   21 ar
    37   20   24 1
    38   21   22 ar
    39   21   38 1
    40   22   23 1
    41   23   39 1
    42   24   40 1
@<TRIPOS>MOLECULE
ZINC00140767
   42    45     0     0     0
SMALL
USER_CHARGES

@<TRIPOS>ATOM
      1 C1         -7.4616    0.9158    6.1515 C.3       1 <0>        -0.1693
      2 C2         -7.3418    1.0895    4.6593 C.ar      1 <0>        -0.1154
      3 C3         -8.4211    0.8059    3.8425 C.ar      1 <0>        -0.0780
      4 C4         -8.3136    0.9639    2.4746 C.ar      1 <0>        -0.2185
      5 C5         -7.1217    1.4079    1.9201 C.ar      1 <0>         0.1074
      6 C6         -6.0408    1.6921    2.7416 C.ar      1 <0>        -0.1444
      7 C7         -6.1550    1.5374    4.1098 C.ar      1 <0>        -0.0738
      8 C8         -4.7449    2.1750    2.1428 C.3       1 <0>         0.0389
      9 N1         -4.8566    3.5999    1.8213 N.pl3     1 <0>        -0.1504
     10 C9         -5.1833    4.1393    0.5937 C.ar      1 <0>        -0.0277
     11 C10        -5.4908    3.5967   -0.6468 C.ar      1 <0>        -0.1088
     12 C11        -5.7801    4.4316   -1.7050 C.ar      1 <0>        -0.1223
     13 C12        -5.7664    5.8097   -1.5388 C.ar      1 <0>        -0.1436
     14 C13        -5.4664    6.3626   -0.3268 C.ar      1 <0>        -0.0754
     15 C14        -5.1689    5.5358    0.7622 C.ar      1 <0>        -0.0488
     16 N2         -4.8420    5.7793    2.0537 N.2       1 <0>        -0.1832
     17 C15        -4.6623    4.6449    2.6838 C.2       1 <0>         0.1007
     18 C16        -4.2997    4.5131    4.1122 C.2       1 <0>        -0.1268
     19 C17        -4.0919    5.5804    5.1186 C.2       1 <0>         0.0615
     20 N3         -3.7967    4.8984    6.2004 N.2       1 <0>        -0.1440
     21 O1         -3.8045    3.7169    5.9470 O.3       1 <0>         0.1176
     22 N4         -4.0748    3.4186    4.8074 N.2       1 <0>        -0.0527
     23 N5         -4.1881    6.9564    4.9583 N.pl3     1 <0>        -0.3656
     24 O2         -7.0134    1.5637    0.5744 O.3       1 <0>        -0.2168
     25 C18        -8.1203    1.1323   -0.2198 C.3       1 <0>        -0.0639
     26 H1         -7.1690   -0.0983    6.4239 H         1 <0>         0.0843
     27 H2         -8.4936    1.0903    6.4559 H         1 <0>         0.0796
     28 H3         -6.8089    1.6297    6.6539 H         1 <0>         0.0851
     29 H4         -9.3486    0.4604    4.2746 H         1 <0>         0.1322
     30 H5         -9.1568    0.7423    1.8371 H         1 <0>         0.1363
     31 H6         -5.3149    1.7624    4.7502 H         1 <0>         0.1609
     32 H7         -3.9363    2.0263    2.8584 H         1 <0>         0.1206
     33 H8         -4.5331    1.6128    1.2333 H         1 <0>         0.1161
     34 H9         -5.5030    2.5253   -0.7822 H         1 <0>         0.1409
     35 H10        -6.0194    4.0104   -2.6703 H         1 <0>         0.1297
     36 H11        -5.9958    6.4513   -2.3767 H         1 <0>         0.1310
     37 H12        -5.4584    7.4361   -0.2090 H         1 <0>         0.1381
     38 H13        -4.4194    7.3289    4.0930 H         1 <0>         0.2618
     39 H14        -4.0240    7.5451    5.7115 H         1 <0>         0.2374
     40 H15        -8.9932    1.7428    0.0115 H         1 <0>         0.0730
     41 H16        -7.8726    1.2378   -1.2760 H         1 <0>         0.1068
     42 H17        -8.3394    0.0873   -0.0006 H         1 <0>         0.0690
@<TRIPOS>BOND
     1    1    2 1
     2    1   26 1
     3    1   27 1
     4    1   28 1
     5    2    7 ar
     6    2    3 ar
     7    3    4 ar
     8    3   29 1
     9    4    5 ar
    10    4   30 1
    11    5    6 ar
    12    5   24 1
    13    6    7 ar
    14    6    8 1
    15    7   31 1
    16    8    9 1
    17    8   32 1
    18    8   33 1
    19    9   17 1
    20    9   10 1
    21   10   15 ar
    22   10   11 ar
    23   11   12 ar
    24   11   34 1
    25   12   13 ar
    26   12   35 1
    27   13   14 ar
    28   13   36 1
    29   14   15 ar
    30   14   37 1
    31   15   16 1
    32   16   17 2
    33   17   18 1
    34   18   22 2
    35   18   19 1
    36   19   20 2
    37   19   23 1
    38   20   21 1
    39   21   22 1
    40   23   38 1
    41   23   39 1
    42   24   25 1
    43   25   40 1
    44   25   41 1
    45   25   42 1
@<TRIPOS>MOLECULE
ZINC00140767
   43    46     0     0     0
SMALL
USER_CHARGES

@<TRIPOS>ATOM
      1 C1         -7.4616    0.9158    6.1515 C.3       1 <0>        -0.1739
      2 C2         -7.3418    1.0895    4.6593 C.ar      1 <0>        -0.1031
      3 C3         -8.4211    0.8059    3.8425 C.ar      1 <0>        -0.0551
      4 C4         -8.3136    0.9639    2.4746 C.ar      1 <0>        -0.2073
      5 C5         -7.1217    1.4079    1.9201 C.ar      1 <0>         0.1110
      6 C6         -6.0408    1.6921    2.7416 C.ar      1 <0>        -0.1791
      7 C7         -6.1550    1.5374    4.1098 C.ar      1 <0>        -0.0761
      8 C8         -4.7449    2.1750    2.1428 C.3       1 <0>         0.0330
      9 N1         -4.8566    3.5999    1.8213 N.pl3     1 <0>        -0.0695
     10 C9         -5.1833    4.1393    0.5937 C.ar      1 <0>        -0.0009
     11 C10        -5.4908    3.5967   -0.6468 C.ar      1 <0>        -0.0800
     12 C11        -5.7801    4.4316   -1.7050 C.ar      1 <0>        -0.0875
     13 C12        -5.7664    5.8097   -1.5388 C.ar      1 <0>        -0.0808
     14 C13        -5.4664    6.3626   -0.3268 C.ar      1 <0>        -0.1028
     15 C14        -5.1689    5.5358    0.7622 C.ar      1 <0>        -0.0457
     16 C15        -4.6623    4.6449    2.6838 C.cat     1 <0>         0.2140
     17 C16        -4.2997    4.5131    4.1122 C.2       1 <0>        -0.2217
     18 C17        -4.0919    5.5804    5.1186 C.2       1 <0>         0.0588
     19 N2         -3.7967    4.8984    6.2004 N.2       1 <0>        -0.0801
     20 O1         -3.8045    3.7169    5.9470 O.3       1 <0>         0.1690
     21 N3         -4.0748    3.4186    4.8074 N.2       1 <0>         0.0157
     22 N4         -4.1881    6.9564    4.9583 N.pl3     1 <0>        -0.3649
     23 O2         -7.0134    1.5637    0.5744 O.3       1 <0>        -0.2407
     24 C18        -8.1203    1.1323   -0.2198 C.3       1 <0>        -0.0676
     25 H1         -7.1690   -0.0983    6.4239 H         1 <0>         0.1008
     26 H2         -8.4936    1.0903    6.4559 H         1 <0>         0.0923
     27 H3         -6.8089    1.6297    6.6539 H         1 <0>         0.0825
     28 H4         -9.3486    0.4604    4.2746 H         1 <0>         0.1507
     29 H5         -9.1568    0.7423    1.8371 H         1 <0>         0.1510
     30 H6         -5.3149    1.7624    4.7502 H         1 <0>         0.1535
     31 H7         -3.9363    2.0263    2.8584 H         1 <0>         0.1392
     32 H8         -4.5331    1.6128    1.2333 H         1 <0>         0.1449
     33 H9         -5.5030    2.5253   -0.7822 H         1 <0>         0.1754
     34 H10        -6.0194    4.0104   -2.6703 H         1 <0>         0.1664
     35 H11        -5.9958    6.4513   -2.3767 H         1 <0>         0.1673
     36 H12        -5.4584    7.4361   -0.2090 H         1 <0>         0.1561
     37 H13        -4.4194    7.3289    4.0930 H         1 <0>         0.2252
     38 H14        -4.0240    7.5451    5.7115 H         1 <0>         0.2708
     39 H15        -8.9932    1.7428    0.0115 H         1 <0>         0.0785
     40 H16        -7.8726    1.2378   -1.2760 H         1 <0>         0.1129
     41 H17        -8.3394    0.0873   -0.0006 H         1 <0>         0.0872
     42 N5         -4.8419    5.7803    2.0541 N.pl3     1 <0>        -0.1161
     43 H18        -4.7490    6.7121    2.4753 H         1 <0>         0.2966
@<TRIPOS>BOND
     1    1    2 1
     2    1   25 1
     3    1   26 1
     4    1   27 1
     5    2    7 ar
     6    2    3 ar
     7    3    4 ar
     8    3   28 1
     9    4    5 ar
    10    4   29 1
    11    5    6 ar
    12    5   23 1
    13    6    7 ar
    14    6    8 1
    15    7   30 1
    16    8    9 1
    17    8   31 1
    18    8   32 1
    19    9   16 1
    20    9   10 1
    21   10   15 ar
    22   10   11 ar
    23   11   12 ar
    24   11   33 1
    25   12   13 ar
    26   12   34 1
    27   13   14 ar
    28   13   35 1
    29   14   15 ar
    30   14   36 1
    31   15   42 1
    32   16   17 1
    33   16   42 2
    34   17   21 2
    35   17   18 1
    36   18   19 2
    37   18   22 1
    38   19   20 1
    39   20   21 1
    40   22   37 1
    41   22   38 1
    42   23   24 1
    43   24   39 1
    44   24   40 1
    45   24   41 1
    46   42   43 1
@<TRIPOS>MOLECULE
ZINC00144593
   44    45     0     0     0
SMALL
USER_CHARGES

@<TRIPOS>ATOM
      1 C1         -2.8550    1.5193   -0.0559 C.3       1 <0>        -0.1760
      2 C2         -2.0776    1.7770    1.2092 C.ar      1 <0>        -0.0734
      3 C3         -2.7313    2.2247    2.3427 C.ar      1 <0>        -0.1205
      4 C4         -2.0201    2.4675    3.5030 C.ar      1 <0>        -0.1229
      5 C5         -0.6547    2.2583    3.5344 C.ar      1 <0>        -0.0854
      6 C6          0.0024    1.8043    2.4003 C.ar      1 <0>         0.0520
      7 C7         -0.7136    1.5614    1.2369 C.ar      1 <0>        -0.0818
      8 C8         -0.0028    1.0686    0.0029 C.3       1 <0>        -0.1725
      9 O1          1.3454    1.5983    2.4285 O.3       1 <0>        -0.1985
     10 C9          2.1789    2.7030    2.0723 C.3       1 <0>        -0.0304
     11 C10         3.6255    2.2899    2.1606 C.2       1 <0>         0.2980
     12 O2          3.9143    1.1606    2.4956 O.2       1 <0>        -0.3104
     13 N1          4.5983    3.1754    1.8674 N.am      1 <0>        -0.3354
     14 C11         5.9411    2.8229    2.0420 C.ar      1 <0>         0.1203
     15 C12         6.8630    3.7765    2.4535 C.ar      1 <0>        -0.1884
     16 C13         8.1864    3.4238    2.6314 C.ar      1 <0>        -0.0090
     17 C14         8.5963    2.1257    2.3880 C.ar      1 <0>        -0.7809
     18 C15         7.6819    1.1753    1.9723 C.ar      1 <0>        -0.0090
     19 C16         6.3558    1.5200    1.7989 C.ar      1 <0>        -0.1536
     20 S1         10.2871    1.6817    2.6086 S.o2      1 <0>         2.7633
     21 O3         10.8361    2.6169    3.5268 O.2       1 <0>        -0.9191
     22 O4         10.3118    0.2803    2.8424 O.2       1 <0>        -0.9153
     23 N2         11.0523    1.9337    1.1618 N.pl3     1 <0>        -0.9320
     24 C17         0.1199    2.5227    4.7998 C.3       1 <0>        -0.1769
     25 H1         -3.2020    0.4860   -0.0649 H         1 <0>         0.0900
     26 H2         -3.7125    2.1909   -0.0986 H         1 <0>         0.0811
     27 H3         -2.2129    1.6945   -0.9190 H         1 <0>         0.0847
     28 H4         -3.7985    2.3888    2.3202 H         1 <0>         0.1326
     29 H5         -2.5321    2.8213    4.3856 H         1 <0>         0.1345
     30 H6          0.0134   -0.0213    0.0037 H         1 <0>         0.0987
     31 H7          1.0194    1.4471   -0.0032 H         1 <0>         0.0803
     32 H8         -0.5269    1.4235   -0.8845 H         1 <0>         0.0808
     33 H9          1.9519    3.0156    1.0531 H         1 <0>         0.0884
     34 H10         1.9954    3.5319    2.7560 H         1 <0>         0.0914
     35 H11         4.3676    4.0571    1.5352 H         1 <0>         0.2344
     36 H12         6.5445    4.7917    2.6387 H         1 <0>         0.1366
     37 H13         8.9028    4.1636    2.9566 H         1 <0>         0.1546
     38 H14         8.0051    0.1622    1.7834 H         1 <0>         0.1585
     39 H15         5.6420    0.7771    1.4749 H         1 <0>         0.1742
     40 H16        10.5527    2.2687    0.4008 H         1 <0>         0.2287
     41 H17        12.0001    1.7464    1.0753 H         1 <0>         0.2432
     42 H18         0.4625    3.5574    4.8065 H         1 <0>         0.0771
     43 H19        -0.5228    2.3472    5.6625 H         1 <0>         0.0846
     44 H20         0.9800    1.8548    4.8455 H         1 <0>         0.1035
@<TRIPOS>BOND
     1    1    2 1
     2    1   25 1
     3    1   26 1
     4    1   27 1
     5    2    7 ar
     6    2    3 ar
     7    3    4 ar
     8    3   28 1
     9    4    5 ar
    10    4   29 1
    11    5    6 ar
    12    5   24 1
    13    6    7 ar
    14    6    9 1
    15    7    8 1
    16    8   30 1
    17    8   31 1
    18    8   32 1
    19    9   10 1
    20   10   11 1
    21   10   33 1
    22   10   34 1
    23   11   12 2
    24   11   13 am
    25   13   14 1
    26   13   35 1
    27   14   19 ar
    28   14   15 ar
    29   15   16 ar
    30   15   36 1
    31   16   17 ar
    32   16   37 1
    33   17   18 ar
    34   17   20 1
    35   18   19 ar
    36   18   38 1
    37   19   39 1
    38   20   21 2
    39   20   22 2
    40   20   23 1
    41   23   40 1
    42   23   41 1
    43   24   42 1
    44   24   43 1
    45   24   44 1
@<TRIPOS>MOLECULE
ZINC00144849
   36    37     0     0     0
SMALL
USER_CHARGES

@<TRIPOS>ATOM
      1 C1         -6.6592   10.4084    0.1063 C.3       1 <0>        -0.1597
      2 C2         -7.7862    9.4080    0.0980 C.2       1 <0>         0.0899
      3 C3         -7.5337    8.0431    0.0833 C.2       1 <0>        -0.4362
      4 S1         -9.2013    7.4005    0.0878 S.3       1 <0>         0.2712
      5 C4        -10.0324    8.9250    0.1006 C.2       1 <0>         0.0181
      6 N1         -9.0347    9.7967    0.1007 N.2       1 <0>        -0.2865
      7 N2        -11.3892    9.1674    0.1090 N.pl3     1 <0>        -0.3478
      8 C5         -6.2582    7.3296    0.0734 C.2       1 <0>         0.4269
      9 O1         -5.2120    7.9528    0.0722 O.2       1 <0>        -0.3265
     10 N3         -6.2399    5.9820    0.0655 N.am      1 <0>        -0.3256
     11 N4         -5.0173    5.2981    0.0560 N.2       1 <0>         0.0201
     12 C6         -4.9997    3.9994    0.0484 C.2       1 <0>        -0.1258
     13 C7         -3.7143    3.2805    0.0384 C.ar      1 <0>        -0.0115
     14 C8         -3.6952    1.8816    0.0303 C.ar      1 <0>        -0.1291
     15 C9         -2.5032    1.2152    0.0205 C.ar      1 <0>        -0.0704
     16 C10        -1.3018    1.9309    0.0187 C.ar      1 <0>        -0.1060
     17 C11        -1.3206    3.3292    0.0323 C.ar      1 <0>        -0.0829
     18 C12        -2.5123    3.9962    0.0366 C.ar      1 <0>        -0.1092
     19 C13        -0.0144    1.2108    0.0087 C.2       1 <0>         0.3479
     20 O2          0.0021   -0.0041    0.0020 O.2       1 <0>        -0.3616
     21 O3          1.1433    1.9004    0.0013 O.3       1 <0>        -0.2658
     22 C14         2.3716    1.1262   -0.0145 C.3       1 <0>        -0.0508
     23 H1         -6.3894   10.6603   -0.9194 H         1 <0>         0.1019
     24 H2         -6.9772   11.3097    0.6302 H         1 <0>         0.0928
     25 H3         -5.7956    9.9786    0.6139 H         1 <0>         0.1239
     26 H4        -12.0144    8.4258    0.1078 H         1 <0>         0.2433
     27 H5        -11.7189   10.0796    0.1162 H         1 <0>         0.2483
     28 H6         -7.0733    5.4857    0.0664 H         1 <0>         0.2110
     29 H7         -5.9275    3.4468    0.0495 H         1 <0>         0.1191
     30 H8         -4.6230    1.3288    0.0320 H         1 <0>         0.1363
     31 H9         -2.4884    0.1353    0.0139 H         1 <0>         0.1569
     32 H10        -0.3926    3.8817    0.0350 H         1 <0>         0.1532
     33 H11        -2.5268    5.0761    0.0432 H         1 <0>         0.1653
     34 H12         3.2269    1.8019   -0.0191 H         1 <0>         0.1037
     35 H13         2.4135    0.4931    0.8717 H         1 <0>         0.0828
     36 H14         2.3965    0.5026   -0.9082 H         1 <0>         0.0828
@<TRIPOS>BOND
     1    1    2 1
     2    1   23 1
     3    1   24 1
     4    1   25 1
     5    2    6 1
     6    2    3 2
     7    3    4 1
     8    3    8 1
     9    4    5 1
    10    5    6 2
    11    5    7 1
    12    7   26 1
    13    7   27 1
    14    8    9 2
    15    8   10 am
    16   10   11 1
    17   10   28 1
    18   11   12 2
    19   12   13 1
    20   12   29 1
    21   13   18 ar
    22   13   14 ar
    23   14   15 ar
    24   14   30 1
    25   15   16 ar
    26   15   31 1
    27   16   17 ar
    28   16   19 1
    29   17   18 ar
    30   17   32 1
    31   18   33 1
    32   19   20 2
    33   19   21 1
    34   21   22 1
    35   22   34 1
    36   22   35 1
    37   22   36 1
@<TRIPOS>MOLECULE
ZINC00146145
   40    41     0     0     0
SMALL
USER_CHARGES

@<TRIPOS>ATOM
      1 C1          2.0709   -8.1892   -2.0886 C.3       1 <0>        -0.1928
      2 C2          0.7678   -7.3983   -1.9568 C.3       1 <0>        -0.7470
      3 S1          0.3107   -7.2735   -0.2058 S.o2      1 <0>         2.6597
      4 O1          1.2445   -6.4565    0.4868 O.2       1 <0>        -0.8939
      5 O2         -0.0468   -8.5528    0.2991 O.2       1 <0>        -0.9021
      6 C3         -1.1900   -6.3502   -0.1943 C.ar      1 <0>        -0.7379
      7 C4         -2.4041   -7.0063   -0.2809 C.ar      1 <0>        -0.0355
      8 C5         -3.5850   -6.2873   -0.2723 C.ar      1 <0>        -0.1604
      9 C6         -3.5544   -4.9056   -0.1763 C.ar      1 <0>         0.0869
     10 C7         -2.3315   -4.2438   -0.0886 C.ar      1 <0>         0.0195
     11 C8         -1.1504   -4.9718   -0.1036 C.ar      1 <0>        -0.0182
     12 N1         -2.2943   -2.8475    0.0087 N.am      1 <0>        -0.3178
     13 C9         -1.2974   -2.1573   -0.5798 C.2       1 <0>         0.3441
     14 O3         -0.3861   -2.7510   -1.1261 O.2       1 <0>        -0.3730
     15 C10        -1.3107   -0.6935   -0.5619 C.2       1 <0>        -0.2468
     16 C11        -0.3134   -0.0031   -1.1507 C.2       1 <0>        -0.0174
     17 C12        -0.3268    1.4688   -1.1327 C.ar      1 <0>        -0.0755
     18 C13        -1.3750    2.1545   -0.5110 C.ar      1 <0>        -0.1079
     19 C14        -1.3776    3.5333   -0.4938 C.ar      1 <0>        -0.1309
     20 C15        -0.3521    4.2385   -1.0992 C.ar      1 <0>        -0.1120
     21 C16         0.6861    3.5670   -1.7211 C.ar      1 <0>        -0.1309
     22 C17         0.7057    2.1884   -1.7422 C.ar      1 <0>        -0.0987
     23 O4         -4.7149   -4.1971   -0.1683 O.3       1 <0>        -0.2952
     24 H1          2.8631   -7.6778   -1.5418 H         1 <0>         0.0915
     25 H2          1.9323   -9.1890   -1.6771 H         1 <0>         0.0888
     26 H3          2.3456   -8.2642   -3.1408 H         1 <0>         0.0932
     27 H4         -0.0244   -7.9096   -2.5036 H         1 <0>         0.1344
     28 H5          0.9064   -6.3985   -2.3683 H         1 <0>         0.1445
     29 H6         -2.4300   -8.0834   -0.3558 H         1 <0>         0.1533
     30 H7         -4.5315   -6.8029   -0.3408 H         1 <0>         0.1481
     31 H8         -0.2006   -4.4616   -0.0405 H         1 <0>         0.1898
     32 H9         -2.9860   -2.3769    0.4996 H         1 <0>         0.2445
     33 H10        -2.1193   -0.1667   -0.0772 H         1 <0>         0.1334
     34 H11         0.4952   -0.5299   -1.6354 H         1 <0>         0.1584
     35 H12        -2.1783    1.6056   -0.0421 H         1 <0>         0.1324
     36 H13        -2.1842    4.0644   -0.0102 H         1 <0>         0.1329
     37 H14        -0.3619    5.3184   -1.0860 H         1 <0>         0.1323
     38 H15         1.4828    4.1243   -2.1913 H         1 <0>         0.1343
     39 H16         1.5165    1.6659   -2.2278 H         1 <0>         0.1369
     40 H17        -5.0200   -3.9319   -1.0467 H         1 <0>         0.2350
@<TRIPOS>BOND
     1    1    2 1
     2    1   24 1
     3    1   25 1
     4    1   26 1
     5    2    3 1
     6    2   27 1
     7    2   28 1
     8    3    4 2
     9    3    5 2
    10    3    6 1
    11    6   11 ar
    12    6    7 ar
    13    7    8 ar
    14    7   29 1
    15    8    9 ar
    16    8   30 1
    17    9   10 ar
    18    9   23 1
    19   10   11 ar
    20   10   12 1
    21   11   31 1
    22   12   13 am
    23   12   32 1
    24   13   14 2
    25   13   15 1
    26   15   16 2
    27   15   33 1
    28   16   17 1
    29   16   34 1
    30   17   22 ar
    31   17   18 ar
    32   18   19 ar
    33   18   35 1
    34   19   20 ar
    35   19   36 1
    36   20   21 ar
    37   20   37 1
    38   21   22 ar
    39   21   38 1
    40   22   39 1
    41   23   40 1
@<TRIPOS>MOLECULE
ZINC00147887
   43    44     0     0     0
SMALL
USER_CHARGES

@<TRIPOS>ATOM
      1 C1         -4.3665   -4.3141    1.0510 C.3       1 <0>        -0.2063
      2 C2         -4.6479   -3.2652   -0.0267 C.3       1 <0>        -0.1305
      3 C3         -3.4555   -2.3541   -0.1645 C.ar      1 <0>        -0.0451
      4 C4         -2.4482   -2.6686   -1.0594 C.ar      1 <0>        -0.1378
      5 C5         -1.3543   -1.8384   -1.1911 C.ar      1 <0>        -0.0606
      6 C6         -1.2648   -0.6792   -0.4186 C.ar      1 <0>        -0.1376
      7 C7         -2.2816   -0.3710    0.4869 C.ar      1 <0>        -0.0999
      8 C8         -3.3730   -1.2066    0.6042 C.ar      1 <0>        -0.1352
      9 C9         -0.0957    0.2150   -0.5545 C.2       1 <0>         0.3509
     10 O1          0.7906   -0.0585   -1.3403 O.2       1 <0>        -0.3538
     11 N1         -0.0123    1.3335    0.1928 N.am      1 <0>        -0.3226
     12 C10         1.1425    2.1209    0.1465 C.ar      1 <0>         0.0890
     13 C11         2.3838    1.5247   -0.0406 C.ar      1 <0>        -0.1399
     14 C12         3.5245    2.3022   -0.0918 C.ar      1 <0>        -0.0911
     15 C13         3.4367    3.6735    0.0533 C.ar      1 <0>        -0.1198
     16 C14         2.1993    4.2753    0.2465 C.ar      1 <0>         0.0745
     17 C15         1.0507    3.4974    0.2931 C.ar      1 <0>        -0.2178
     18 N2          2.1113    5.6615    0.3931 N.pl3     1 <0>        -0.8068
     19 S1          0.9891    6.3159    1.4201 S.o2      1 <0>         2.6820
     20 O2          1.2414    7.7140    1.3897 O.2       1 <0>        -0.9048
     21 O3         -0.2561    5.7947    0.9762 O.2       1 <0>        -0.9091
     22 C16         1.4022    5.6418    3.0528 C.3       1 <0>        -0.8238
     23 C17         4.6843    4.5172    0.0026 C.3       1 <0>        -0.1665
     24 H1         -4.1779   -3.8162    2.0021 H         1 <0>         0.0774
     25 H2         -5.2290   -4.9731    1.1507 H         1 <0>         0.0765
     26 H3         -3.4922   -4.9002    0.7680 H         1 <0>         0.0787
     27 H4         -5.5223   -2.6790    0.2562 H         1 <0>         0.0901
     28 H5         -4.8366   -3.7631   -0.9778 H         1 <0>         0.0913
     29 H6         -2.5187   -3.5657   -1.6565 H         1 <0>         0.1380
     30 H7         -0.5691   -2.0846   -1.8906 H         1 <0>         0.1569
     31 H8         -2.2162    0.5220    1.0907 H         1 <0>         0.1251
     32 H9         -4.1628   -0.9667    1.3007 H         1 <0>         0.1352
     33 H10        -0.7548    1.5945    0.7598 H         1 <0>         0.2371
     34 H11         2.4563    0.4527   -0.1500 H         1 <0>         0.1628
     35 H12         4.4875    1.8367   -0.2411 H         1 <0>         0.1384
     36 H13         0.0877    3.9626    0.4435 H         1 <0>         0.1821
     37 H14         2.7075    6.2409   -0.1066 H         1 <0>         0.2582
     38 H15         2.4161    5.9377    3.3220 H         1 <0>         0.1390
     39 H16         0.7021    6.0286    3.7933 H         1 <0>         0.1413
     40 H17         1.3366    4.5542    3.0240 H         1 <0>         0.1398
     41 H18         5.0948    4.6196    1.0071 H         1 <0>         0.0834
     42 H19         5.4204    4.0388   -0.6436 H         1 <0>         0.0869
     43 H20         4.4403    5.5033   -0.3925 H         1 <0>         0.0745
@<TRIPOS>BOND
     1    1    2 1
     2    1   24 1
     3    1   25 1
     4    1   26 1
     5    2    3 1
     6    2   27 1
     7    2   28 1
     8    3    8 ar
     9    3    4 ar
    10    4    5 ar
    11    4   29 1
    12    5    6 ar
    13    5   30 1
    14    6    7 ar
    15    6    9 1
    16    7    8 ar
    17    7   31 1
    18    8   32 1
    19    9   10 2
    20    9   11 am
    21   11   12 1
    22   11   33 1
    23   12   17 ar
    24   12   13 ar
    25   13   14 ar
    26   13   34 1
    27   14   15 ar
    28   14   35 1
    29   15   16 ar
    30   15   23 1
    31   16   17 ar
    32   16   18 1
    33   17   36 1
    34   18   19 1
    35   18   37 1
    36   19   20 2
    37   19   21 2
    38   19   22 1
    39   22   38 1
    40   22   39 1
    41   22   40 1
    42   23   41 1
    43   23   42 1
    44   23   43 1
@<TRIPOS>MOLECULE
ZINC00156146
   38    41     0     0     0
SMALL
USER_CHARGES

@<TRIPOS>ATOM
      1 C1         10.6106   -5.8101   -5.2974 C.ar      1 <0>        -0.1151
      2 C2         11.0478   -4.5725   -4.8611 C.ar      1 <0>        -0.1295
      3 C3         10.1590   -3.6875   -4.2850 C.ar      1 <0>        -0.0964
      4 C4          8.8194   -4.0428   -4.1432 C.ar      1 <0>        -0.0181
      5 C5          8.3855   -5.2929   -4.5790 C.ar      1 <0>        -0.1073
      6 C6          9.2816   -6.1680   -5.1590 C.ar      1 <0>        -0.1289
      7 C7          7.8588   -3.0951   -3.5243 C.2       1 <0>        -0.0952
      8 C8          6.4708   -3.3099   -3.3061 C.2       1 <0>        -0.1475
      9 C9          6.0495   -2.1464   -2.7185 C.2       1 <0>        -0.1775
     10 O1          7.1381   -1.3585   -2.6185 O.3       1 <0>         0.0619
     11 N1          8.1229   -1.8971   -3.0666 N.2       1 <0>         0.0003
     12 C10         4.6868   -1.8248   -2.2799 C.2       1 <0>         0.3253
     13 O2          3.7945   -2.6324   -2.4312 O.2       1 <0>        -0.2520
     14 C11         4.3957   -0.4911   -1.6415 C.3       1 <0>        -0.3061
     15 S1          2.6354   -0.3970   -1.2133 S.3       1 <0>         0.2888
     16 C12         2.4580    1.1986   -0.4872 C.2       1 <0>        -0.1746
     17 N2          3.4139    2.0809   -0.3208 N.2       1 <0>        -0.1160
     18 N3          2.8573    3.2091    0.2958 N.2       1 <0>        -0.0968
     19 C13         1.5819    2.9814    0.4804 C.2       1 <0>         0.0853
     20 N4          1.3003    1.7356   -0.0010 N.pl3     1 <0>        -0.1683
     21 C14        -0.0127    1.0858    0.0080 C.3       1 <0>        -0.0526
     22 C15        -1.1356    1.7728    0.7878 C.3       1 <0>        -0.2213
     23 C16        -1.1502    1.7810   -0.7428 C.3       1 <0>        -0.2034
     24 O3          0.6946    3.8347    1.0501 O.3       1 <0>        -0.2300
     25 H1         11.3093   -6.4995   -5.7479 H         1 <0>         0.1325
     26 H2         12.0865   -4.2982   -4.9713 H         1 <0>         0.1356
     27 H3         10.5013   -2.7213   -3.9451 H         1 <0>         0.1480
     28 H4          7.3491   -5.5751   -4.4671 H         1 <0>         0.1320
     29 H5          8.9454   -7.1354   -5.5016 H         1 <0>         0.1343
     30 H6          5.8853   -4.1845   -3.5484 H         1 <0>         0.1901
     31 H7          4.6224    0.2420   -2.2828 H         1 <0>         0.1375
     32 H8          4.9957   -0.3820   -0.7381 H         1 <0>         0.1495
     33 H9          0.0021   -0.0041    0.0020 H         1 <0>         0.1572
     34 H10        -1.8595    1.1349    1.2949 H         1 <0>         0.1221
     35 H11        -0.8975    2.7084    1.2938 H         1 <0>         0.1321
     36 H12        -0.9217    2.7221   -1.2432 H         1 <0>         0.1345
     37 H13        -1.8835    1.1485   -1.2431 H         1 <0>         0.1231
     38 H14         0.6136    3.7357    2.0086 H         1 <0>         0.2465
@<TRIPOS>BOND
     1    1    6 ar
     2    1    2 ar
     3    1   25 1
     4    2    3 ar
     5    2   26 1
     6    3    4 ar
     7    3   27 1
     8    4    5 ar
     9    4    7 1
    10    5    6 ar
    11    5   28 1
    12    6   29 1
    13    7   11 2
    14    7    8 1
    15    8    9 2
    16    8   30 1
    17    9   10 1
    18    9   12 1
    19   10   11 1
    20   12   13 2
    21   12   14 1
    22   14   15 1
    23   14   31 1
    24   14   32 1
    25   15   16 1
    26   16   20 1
    27   16   17 2
    28   17   18 1
    29   18   19 2
    30   19   20 1
    31   19   24 1
    32   20   21 1
    33   21   23 1
    34   21   22 1
    35   21   33 1
    36   22   23 1
    37   22   34 1
    38   22   35 1
    39   23   36 1
    40   23   37 1
    41   24   38 1
@<TRIPOS>MOLECULE
ZINC00160140
   39    41     0     0     0
SMALL
USER_CHARGES

@<TRIPOS>ATOM
      1 C1          6.9775   14.6348    4.1562 C.3       1 <0>        -0.2153
      2 C2          5.7478   14.3097    3.3058 C.3       1 <0>        -0.0044
      3 O1          5.6069   12.8693    3.1894 O.3       1 <0>        -0.2604
      4 C3          4.5692   12.4147    2.4694 C.2       1 <0>         0.3211
      5 O2          3.8040   13.1946    1.9536 O.2       1 <0>        -0.3496
      6 C4          4.3587   10.9317    2.3044 C.3       1 <0>        -0.2931
      7 S1          2.8887   10.6402    1.2893 S.3       1 <0>         0.3726
      8 C5          2.8813    8.8785    1.2603 C.2       1 <0>        -0.2130
      9 N1          3.7481    8.0898    1.8467 N.2       1 <0>        -0.1134
     10 N2          3.4339    6.8630    1.6206 N.2       1 <0>        -0.1476
     11 C6          2.3573    6.8192    0.8728 C.2       1 <0>         0.0825
     12 O3          1.9824    8.0948    0.6313 O.3       1 <0>        -0.0747
     13 C7          1.6771    5.6016    0.3897 C.2       1 <0>        -0.2678
     14 C8          0.5149    5.5526   -0.4090 C.2       1 <0>        -0.0635
     15 N3          0.2210    4.3006   -0.6332 N.2       1 <0>        -0.0782
     16 N4          1.1614    3.4873    0.0092 N.pl3     1 <0>        -0.1255
     17 C9          2.0607    4.2913    0.6367 C.2       1 <0>         0.2123
     18 N5          3.1543    3.8795    1.3834 N.pl3     1 <0>        -0.3863
     19 C10         1.1771    2.0861    0.0020 C.ar      1 <0>         0.0817
     20 C11        -0.0167    1.3769    0.0096 C.ar      1 <0>        -0.1167
     21 C12         0.0021   -0.0041    0.0020 C.ar      1 <0>        -0.1094
     22 C13         1.2080   -0.6805   -0.0131 C.ar      1 <0>        -0.1332
     23 C14         2.3986    0.0229   -0.0207 C.ar      1 <0>        -0.1073
     24 C15         2.3864    1.4039   -0.0127 C.ar      1 <0>        -0.1662
     25 H1          7.8670   14.2199    3.6821 H         1 <0>         0.0880
     26 H2          7.0833   15.7161    4.2436 H         1 <0>         0.0919
     27 H3          6.8583   14.1999    5.1485 H         1 <0>         0.0880
     28 H4          5.8670   14.7446    2.3135 H         1 <0>         0.0918
     29 H5          4.8583   14.7247    3.7799 H         1 <0>         0.0917
     30 H6          4.2208   10.4731    3.2836 H         1 <0>         0.1494
     31 H7          5.2295   10.4930    1.8172 H         1 <0>         0.1494
     32 H8         -0.0355    6.4062   -0.7763 H         1 <0>         0.1980
     33 H9          3.3355    2.9333    1.4968 H         1 <0>         0.2300
     34 H10         3.7379    4.5375    1.7923 H         1 <0>         0.2682
     35 H11        -0.9589    1.9047    0.0170 H         1 <0>         0.1570
     36 H12        -0.9261   -0.5562    0.0076 H         1 <0>         0.1397
     37 H13         1.2201   -1.7605   -0.0187 H         1 <0>         0.1359
     38 H14         3.3389   -0.5083   -0.0326 H         1 <0>         0.1375
     39 H15         3.3166    1.9528   -0.0187 H         1 <0>         0.1390
@<TRIPOS>BOND
     1    1    2 1
     2    1   25 1
     3    1   26 1
     4    1   27 1
     5    2    3 1
     6    2   28 1
     7    2   29 1
     8    3    4 1
     9    4    5 2
    10    4    6 1
    11    6    7 1
    12    6   30 1
    13    6   31 1
    14    7    8 1
    15    8   12 1
    16    8    9 2
    17    9   10 1
    18   10   11 2
    19   11   12 1
    20   11   13 1
    21   13   17 2
    22   13   14 1
    23   14   15 2
    24   14   32 1
    25   15   16 1
    26   16   17 1
    27   16   19 1
    28   17   18 1
    29   18   33 1
    30   18   34 1
    31   19   24 ar
    32   19   20 ar
    33   20   21 ar
    34   20   35 1
    35   21   22 ar
    36   21   36 1
    37   22   23 ar
    38   22   37 1
    39   23   24 ar
    40   23   38 1
    41   24   39 1
@<TRIPOS>MOLECULE
ZINC00160866
   44    46     0     0     0
SMALL
USER_CHARGES

@<TRIPOS>ATOM
      1 C1         -2.4871    0.9625    0.0786 C.3       1 <0>        -0.1778
      2 C2         -1.1981    1.7428    0.0607 C.ar      1 <0>        -0.0596
      3 C3         -1.2399    3.1354    0.0732 C.ar      1 <0>        -0.1265
      4 C4         -0.0908    3.8690    0.0527 C.ar      1 <0>        -0.1036
      5 C5          1.1459    3.2154    0.0231 C.ar      1 <0>        -0.0597
      6 C6          2.4045    3.9615   -0.0002 C.ar      1 <0>        -0.0695
      7 C7          3.5802    3.2263   -0.0293 C.ar      1 <0>        -0.1578
      8 C8          3.5162    1.8240   -0.0352 C.ar      1 <0>         0.0623
      9 N1          2.3725    1.1723   -0.0143 N.ar      1 <0>        -0.1496
     10 C9          1.1949    1.7988    0.0147 C.ar      1 <0>         0.0322
     11 C10        -0.0121    1.0757    0.0370 C.ar      1 <0>        -0.1116
     12 C11         4.7798    1.0503   -0.0664 C.ar      1 <0>        -0.0471
     13 C12         6.0053    1.7108    0.0159 C.ar      1 <0>        -0.1145
     14 C13         7.1810    0.9900   -0.0133 C.ar      1 <0>        -0.1965
     15 C14         7.1477   -0.3923   -0.1244 C.ar      1 <0>         0.0837
     16 C15         5.9266   -1.0576   -0.2065 C.ar      1 <0>         0.0643
     17 C16         4.7451   -0.3399   -0.1723 C.ar      1 <0>        -0.1459
     18 O1          5.8962   -2.4129   -0.3148 O.3       1 <0>        -0.1970
     19 C17         4.6092   -3.0287   -0.3945 C.3       1 <0>        -0.0662
     20 O2          8.3085   -1.0988   -0.1528 O.3       1 <0>        -0.1929
     21 C18         9.5242   -0.3531   -0.0640 C.3       1 <0>        -0.0649
     22 C19         2.4221    5.4405    0.0076 C.2       1 <0>         0.3534
     23 O3          1.3801    6.0611   -0.0713 O.2       1 <0>        -0.3491
     24 N2          3.5937    6.1000    0.1021 N.am      1 <0>        -0.3245
     25 N3          3.6100    7.4659    0.1093 N.3       1 <0>        -0.2103
     26 H1         -2.7804    0.7689    1.1105 H         1 <0>         0.0889
     27 H2         -3.2675    1.5384   -0.4189 H         1 <0>         0.0848
     28 H3         -2.3460    0.0157   -0.4426 H         1 <0>         0.0840
     29 H4         -2.1945    3.6400    0.0964 H         1 <0>         0.1356
     30 H5         -0.1350    4.9480    0.0589 H         1 <0>         0.1868
     31 H6          4.5364    3.7281   -0.0477 H         1 <0>         0.1333
     32 H7          0.0025   -0.0042    0.0307 H         1 <0>         0.1469
     33 H8          6.0338    2.7869    0.1028 H         1 <0>         0.1253
     34 H9          8.1293    1.5029    0.0508 H         1 <0>         0.1405
     35 H10         3.7975   -0.8545   -0.2313 H         1 <0>         0.1661
     36 H11         4.0802   -2.6529   -1.2704 H         1 <0>         0.0699
     37 H12         4.7278   -4.1090   -0.4775 H         1 <0>         0.1089
     38 H13         4.0378   -2.7938    0.5035 H         1 <0>         0.0699
     39 H14        10.3728   -1.0363   -0.0981 H         1 <0>         0.1110
     40 H15         9.5849    0.3437   -0.9000 H         1 <0>         0.0662
     41 H16         9.5422    0.2022    0.8738 H         1 <0>         0.0658
     42 H17         4.4254    5.6047    0.1650 H         1 <0>         0.2239
     43 H18         3.0289    7.8306    0.8491 H         1 <0>         0.1632
     44 H19         4.5534    7.8158    0.1846 H         1 <0>         0.1574
@<TRIPOS>BOND
     1    1    2 1
     2    1   26 1
     3    1   27 1
     4    1   28 1
     5    2   11 ar
     6    2    3 ar
     7    3    4 ar
     8    3   29 1
     9    4    5 ar
    10    4   30 1
    11    5   10 ar
    12    5    6 ar
    13    6    7 ar
    14    6   22 1
    15    7    8 ar
    16    7   31 1
    17    8    9 ar
    18    8   12 1
    19    9   10 ar
    20   10   11 ar
    21   11   32 1
    22   12   17 ar
    23   12   13 ar
    24   13   14 ar
    25   13   33 1
    26   14   15 ar
    27   14   34 1
    28   15   16 ar
    29   15   20 1
    30   16   17 ar
    31   16   18 1
    32   17   35 1
    33   18   19 1
    34   19   36 1
    35   19   37 1
    36   19   38 1
    37   20   21 1
    38   21   39 1
    39   21   40 1
    40   21   41 1
    41   22   23 2
    42   22   24 am
    43   24   25 1
    44   24   42 1
    45   25   43 1
    46   25   44 1
@<TRIPOS>MOLECULE
ZINC00171219
   41    42     0     0     0
SMALL
USER_CHARGES

@<TRIPOS>ATOM
      1 C1          4.5101    1.0945   -1.4965 C.3       1 <0>        -0.2170
      2 C2          3.1439    1.7730   -1.6146 C.3       1 <0>         0.0132
      3 O1          2.1865    1.0840   -0.7680 O.3       1 <0>        -0.2779
      4 C3          0.9268    1.5595   -0.7571 C.2       1 <0>         0.4050
      5 O2          0.6356    2.5239   -1.4366 O.2       1 <0>        -0.4012
      6 N1         -0.0111    0.9658    0.0074 N.am      1 <0>        -0.3146
      7 C4         -1.2917    1.5223    0.1021 C.ar      1 <0>         0.1340
      8 C5         -1.4570    2.9002    0.0526 C.ar      1 <0>        -0.1536
      9 C6         -2.7226    3.4460    0.1416 C.ar      1 <0>        -0.0127
     10 C7         -3.8235    2.6225    0.2903 C.ar      1 <0>        -0.7802
     11 C8         -3.6617    1.2503    0.3451 C.ar      1 <0>        -0.0061
     12 C9         -2.3992    0.6980    0.2515 C.ar      1 <0>        -0.1864
     13 S1         -5.4358    3.3231    0.4096 S.o2      1 <0>         2.7618
     14 O3         -5.3722    4.5974   -0.2160 O.2       1 <0>        -0.9138
     15 O4         -6.3481    2.3156   -0.0050 O.2       1 <0>        -0.9167
     16 N2         -5.7324    3.5985    2.0153 N.pl3     1 <0>        -0.8806
     17 C10        -4.9292    4.5781    2.7511 C.3       1 <0>         0.0366
     18 C11        -5.6119    4.9116    4.0525 C.ar      1 <0>        -0.1008
     19 C12        -6.5130    5.9583    4.1120 C.ar      1 <0>        -0.1067
     20 C13        -7.1432    6.2609    5.3045 C.ar      1 <0>        -0.1290
     21 C14        -6.8642    5.5237    6.4402 C.ar      1 <0>        -0.1194
     22 C15        -5.9589    4.4807    6.3820 C.ar      1 <0>        -0.1304
     23 C16        -5.3329    4.1745    5.1882 C.ar      1 <0>        -0.1152
     24 H1          4.8469    1.1337   -0.4605 H         1 <0>         0.0870
     25 H2          4.4279    0.0546   -1.8126 H         1 <0>         0.0877
     26 H3          5.2289    1.6117   -2.1320 H         1 <0>         0.0942
     27 H4          2.8071    1.7338   -2.6505 H         1 <0>         0.0942
     28 H5          3.2261    2.8129   -1.2984 H         1 <0>         0.0917
     29 H6          0.2003    0.1507    0.4887 H         1 <0>         0.2446
     30 H7         -0.5972    3.5441   -0.0590 H         1 <0>         0.1678
     31 H8         -2.8522    4.5174    0.0991 H         1 <0>         0.1537
     32 H9         -4.5234    0.6097    0.4617 H         1 <0>         0.1529
     33 H10        -2.2736   -0.3738    0.2940 H         1 <0>         0.1382
     34 H11        -6.4380    3.1111    2.4688 H         1 <0>         0.2487
     35 H12        -3.9433    4.1602    2.9547 H         1 <0>         0.0790
     36 H13        -4.8237    5.4837    2.1537 H         1 <0>         0.1058
     37 H14        -6.7276    6.5371    3.2257 H         1 <0>         0.1389
     38 H15        -7.8507    7.0756    5.3498 H         1 <0>         0.1334
     39 H16        -7.3538    5.7625    7.3727 H         1 <0>         0.1312
     40 H17        -5.7409    3.9048    7.2693 H         1 <0>         0.1314
     41 H18        -4.6257    3.3596    5.1428 H         1 <0>         0.1309
@<TRIPOS>BOND
     1    1    2 1
     2    1   24 1
     3    1   25 1
     4    1   26 1
     5    2    3 1
     6    2   27 1
     7    2   28 1
     8    3    4 1
     9    4    5 2
    10    4    6 am
    11    6    7 1
    12    6   29 1
    13    7   12 ar
    14    7    8 ar
    15    8    9 ar
    16    8   30 1
    17    9   10 ar
    18    9   31 1
    19   10   11 ar
    20   10   13 1
    21   11   12 ar
    22   11   32 1
    23   12   33 1
    24   13   14 2
    25   13   15 2
    26   13   16 1
    27   16   17 1
    28   16   34 1
    29   17   18 1
    30   17   35 1
    31   17   36 1
    32   18   23 ar
    33   18   19 ar
    34   19   20 ar
    35   19   37 1
    36   20   21 ar
    37   20   38 1
    38   21   22 ar
    39   21   39 1
    40   22   23 ar
    41   22   40 1
    42   23   41 1
@<TRIPOS>MOLECULE
ZINC00171422
   41    43     0     0     0
SMALL
USER_CHARGES

@<TRIPOS>ATOM
      1 C1         -2.8244    5.1025   -7.3380 C.3       1 <0>        -0.2410
      2 C2         -2.7960    4.4252   -5.9921 C.2       1 <0>         0.3005
      3 O1         -3.6317    3.5910   -5.7152 O.2       1 <0>        -0.3419
      4 N1         -1.8419    4.7465   -5.0960 N.am      1 <0>        -0.3345
      5 C3         -1.7477    4.0413   -3.8912 C.ar      1 <0>         0.1192
      6 C4         -2.0714    2.6916   -3.8478 C.ar      1 <0>        -0.1534
      7 C5         -1.9769    1.9982   -2.6570 C.ar      1 <0>        -0.0077
      8 C6         -1.5601    2.6466   -1.5089 C.ar      1 <0>        -0.7808
      9 C7         -1.2420    3.9917   -1.5477 C.ar      1 <0>        -0.0123
     10 C8         -1.3298    4.6896   -2.7363 C.ar      1 <0>        -0.1890
     11 S1         -1.4409    1.7584    0.0082 S.o2      1 <0>         2.7618
     12 O2         -2.3206    0.6479   -0.1012 O.2       1 <0>        -0.9144
     13 O3         -1.5513    2.7181    1.0503 O.2       1 <0>        -0.9149
     14 N2          0.0930    1.1403    0.0945 N.pl3     1 <0>        -0.8745
     15 C9          1.2429    2.0438    0.1836 C.3       1 <0>         0.0434
     16 C10         1.9441    2.1760   -1.1850 C.3       1 <0>        -0.1431
     17 C11         3.4181    2.3010   -0.8644 C.ar      1 <0>        -0.0855
     18 C12         4.4709    2.7516   -1.6434 C.ar      1 <0>        -0.1129
     19 C13         5.7533    2.7766   -1.1315 C.ar      1 <0>        -0.1260
     20 C14         5.9880    2.3503    0.1626 C.ar      1 <0>        -0.1258
     21 C15         4.9395    1.9003    0.9407 C.ar      1 <0>        -0.1100
     22 C16         3.6527    1.8748    0.4293 C.ar      1 <0>        -0.0867
     23 C17         2.3524    1.4344    1.0667 C.3       1 <0>        -0.1235
     24 H1         -1.8910    4.9037   -7.8646 H         1 <0>         0.0975
     25 H2         -3.6601    4.7162   -7.9215 H         1 <0>         0.1223
     26 H3         -2.9427    6.1774   -7.2014 H         1 <0>         0.0976
     27 H4         -1.2205    5.4666   -5.2864 H         1 <0>         0.2351
     28 H5         -2.3963    2.1845   -4.7442 H         1 <0>         0.1661
     29 H6         -2.2285    0.9485   -2.6226 H         1 <0>         0.1545
     30 H7         -0.9211    4.4963   -0.6484 H         1 <0>         0.1503
     31 H8         -1.0773    5.7392   -2.7668 H         1 <0>         0.1359
     32 H9          0.2305    0.1802    0.0820 H         1 <0>         0.2456
     33 H10         0.9384    3.0195    0.5622 H         1 <0>         0.1243
     34 H11         1.7626    1.2878   -1.7903 H         1 <0>         0.1057
     35 H12         1.5932    3.0673   -1.7052 H         1 <0>         0.0932
     36 H13         4.2883    3.0848   -2.6544 H         1 <0>         0.1277
     37 H14         6.5721    3.1286   -1.7415 H         1 <0>         0.1310
     38 H15         6.9903    2.3685    0.5643 H         1 <0>         0.1319
     39 H16         5.1236    1.5678    1.9517 H         1 <0>         0.1304
     40 H17         2.2803    1.8193    2.0839 H         1 <0>         0.1019
     41 H18         2.2797    0.3468    1.0685 H         1 <0>         0.1018
@<TRIPOS>BOND
     1    1    2 1
     2    1   24 1
     3    1   25 1
     4    1   26 1
     5    2    3 2
     6    2    4 am
     7    4    5 1
     8    4   27 1
     9    5   10 ar
    10    5    6 ar
    11    6    7 ar
    12    6   28 1
    13    7    8 ar
    14    7   29 1
    15    8    9 ar
    16    8   11 1
    17    9   10 ar
    18    9   30 1
    19   10   31 1
    20   11   12 2
    21   11   13 2
    22   11   14 1
    23   14   15 1
    24   14   32 1
    25   15   23 1
    26   15   16 1
    27   15   33 1
    28   16   17 1
    29   16   34 1
    30   16   35 1
    31   17   22 ar
    32   17   18 ar
    33   18   19 ar
    34   18   36 1
    35   19   20 ar
    36   19   37 1
    37   20   21 ar
    38   20   38 1
    39   21   22 ar
    40   21   39 1
    41   22   23 1
    42   23   40 1
    43   23   41 1
@<TRIPOS>MOLECULE
ZINC00173711
   42    44     0     0     0
SMALL
USER_CHARGES

@<TRIPOS>ATOM
      1 C1         -7.3424    0.5262    1.9411 C.3       1 <0>        -0.0641
      2 O1         -6.3266   -0.1766    1.2227 O.3       1 <0>        -0.2073
      3 C2         -5.1363    0.4560    1.0610 C.ar      1 <0>         0.1167
      4 C3         -4.1057   -0.1720    0.3719 C.ar      1 <0>        -0.1616
      5 C4         -2.8966    0.4665    0.2058 C.ar      1 <0>        -0.0546
      6 C5         -2.7071    1.7470    0.7310 C.ar      1 <0>        -0.1068
      7 C6         -3.7436    2.3725    1.4281 C.ar      1 <0>        -0.0409
      8 C7         -4.9515    1.7296    1.5854 C.ar      1 <0>        -0.2337
      9 C8         -1.4116    2.4355    0.5550 C.2       1 <0>         0.1975
     10 C9         -0.2070    1.7631    0.8353 C.2       1 <0>        -0.2460
     11 C10         1.0132    2.4621    0.6461 C.2       1 <0>         0.3606
     12 O2          2.0817    1.9207    0.8706 O.2       1 <0>        -0.3450
     13 N1          0.9656    3.7391    0.2119 N.am      1 <0>        -0.3127
     14 H1          1.8144    4.2491    0.0723 H         1 <0>         0.2494
     15 C11        -0.2320    4.3364   -0.0370 C.2       1 <0>         0.2951
     16 N2         -1.3744    3.7022    0.1333 N.2       1 <0>        -0.2975
     17 N3         -0.2501    5.6319   -0.4759 N.pl3     1 <0>        -0.2699
     18 C12        -1.4637    6.2344   -0.8300 C.ar      1 <0>         0.0147
     19 C13        -2.4670    5.4795   -1.4232 C.ar      1 <0>        -0.0688
     20 C14        -3.6655    6.0731   -1.7668 C.ar      1 <0>        -0.2070
     21 C15        -3.8632    7.4256   -1.5301 C.ar      1 <0>         0.0923
     22 C16        -2.8592    8.1816   -0.9428 C.ar      1 <0>        -0.1445
     23 C17        -1.6623    7.5883   -0.5933 C.ar      1 <0>        -0.1157
     24 O3         -5.0417    8.0105   -1.8735 O.3       1 <0>        -0.2104
     25 C18        -6.0311    7.1724   -2.4741 C.3       1 <0>        -0.0638
     26 C19        -0.2127    0.4065    1.2939 C.1       1 <0>        -0.0465
     27 N4         -0.2173   -0.6696    1.6577 N.1       1 <0>        -0.0528
     28 H2         -8.2397   -0.0900    1.9979 H         1 <0>         0.1106
     29 H3         -6.9887    0.7467    2.9483 H         1 <0>         0.0715
     30 H4         -7.5737    1.4581    1.4251 H         1 <0>         0.0678
     31 H5         -4.2530   -1.1621   -0.0336 H         1 <0>         0.1517
     32 H6         -2.0961   -0.0223   -0.3296 H         1 <0>         0.1491
     33 H7         -3.5992    3.3605    1.8398 H         1 <0>         0.1448
     34 H8         -5.7548    2.2143    2.1203 H         1 <0>         0.1390
     35 H9          0.5777    6.1333   -0.5418 H         1 <0>         0.2465
     36 H10        -2.3116    4.4275   -1.6116 H         1 <0>         0.1647
     37 H11        -4.4476    5.4851   -2.2241 H         1 <0>         0.1434
     38 H12        -3.0137    9.2346   -0.7591 H         1 <0>         0.1495
     39 H13        -0.8809    8.1769   -0.1358 H         1 <0>         0.1347
     40 H14        -5.6355    6.7470   -3.3965 H         1 <0>         0.0694
     41 H15        -6.2926    6.3685   -1.7861 H         1 <0>         0.0702
     42 H16        -6.9197    7.7625   -2.6981 H         1 <0>         0.1105
@<TRIPOS>BOND
     1    1    2 1
     2    1   28 1
     3    1   29 1
     4    1   30 1
     5    2    3 1
     6    3    8 ar
     7    3    4 ar
     8    4    5 ar
     9    4   31 1
    10    5    6 ar
    11    5   32 1
    12    6    7 ar
    13    6    9 1
    14    7    8 ar
    15    7   33 1
    16    8   34 1
    17    9   16 1
    18    9   10 2
    19   10   11 1
    20   10   26 1
    21   11   12 2
    22   11   13 am
    23   13   14 1
    24   13   15 1
    25   15   16 2
    26   15   17 1
    27   17   18 1
    28   17   35 1
    29   18   23 ar
    30   18   19 ar
    31   19   20 ar
    32   19   36 1
    33   20   21 ar
    34   20   37 1
    35   21   22 ar
    36   21   24 1
    37   22   23 ar
    38   22   38 1
    39   23   39 1
    40   24   25 1
    41   25   40 1
    42   25   41 1
    43   25   42 1
    44   26   27 3
@<TRIPOS>MOLECULE
ZINC00173711
   42    44     0     0     0
SMALL
USER_CHARGES

@<TRIPOS>ATOM
      1 C1         -7.3425    0.5249    1.9384 C.3       1 <0>        -0.0653
      2 O1         -6.3265   -0.1775    1.2199 O.3       1 <0>        -0.2029
      3 C2         -5.1362    0.4552    1.0587 C.ar      1 <0>         0.1220
      4 C3         -4.1054   -0.1724    0.3695 C.ar      1 <0>        -0.1555
      5 C4         -2.8963    0.4662    0.2039 C.ar      1 <0>        -0.0452
      6 C5         -2.7070    1.7465    0.7296 C.ar      1 <0>        -0.1339
      7 C6         -3.7437    2.3717    1.4267 C.ar      1 <0>        -0.0684
      8 C7         -4.9516    1.7286    1.5836 C.ar      1 <0>        -0.2260
      9 C8         -1.4116    2.4352    0.5541 C.2       1 <0>         0.1313
     10 C9         -0.2070    1.7628    0.8344 C.2       1 <0>        -0.1789
     11 C10         1.0130    2.4640    0.6518 C.2       1 <0>         0.3278
     12 O2          2.0815    1.9227    0.8765 O.2       1 <0>        -0.3169
     13 N1          0.9651    3.7428    0.2227 N.2       1 <0>        -0.3278
     14 H1         -2.2324    4.1813   -0.0525 H         1 <0>         0.2704
     15 C11        -0.2325    4.3399   -0.0265 C.2       1 <0>         0.2659
     16 N2         -1.3746    3.7038    0.1381 N.pl3     1 <0>        -0.2395
     17 N3         -0.2508    5.6372   -0.4601 N.pl3     1 <0>        -0.2740
     18 C12        -1.4642    6.2400   -0.8145 C.ar      1 <0>         0.0168
     19 C13        -2.4654    5.4866   -1.4131 C.ar      1 <0>        -0.1694
     20 C14        -3.6637    6.0805   -1.7570 C.ar      1 <0>        -0.1877
     21 C15        -3.8632    7.4318   -1.5152 C.ar      1 <0>         0.0852
     22 C16        -2.8613    8.1863   -0.9225 C.ar      1 <0>        -0.1219
     23 C17        -1.6646    7.5927   -0.5727 C.ar      1 <0>        -0.1153
     24 O3         -5.0415    8.0170   -1.8589 O.3       1 <0>        -0.2056
     25 C18        -6.0287    7.1804   -2.4652 C.3       1 <0>        -0.0649
     26 C19        -0.2126    0.4060    1.2925 C.1       1 <0>        -0.0558
     27 N4         -0.2172   -0.6702    1.6559 N.1       1 <0>        -0.0425
     28 H2         -8.2397   -0.0914    1.9948 H         1 <0>         0.1150
     29 H3         -6.9890    0.7451    2.9457 H         1 <0>         0.0736
     30 H4         -7.5737    1.4570    1.4227 H         1 <0>         0.0672
     31 H5         -4.2526   -1.1624   -0.0364 H         1 <0>         0.1573
     32 H6         -2.0957   -0.0223   -0.3316 H         1 <0>         0.1564
     33 H7         -3.5995    3.3596    1.8388 H         1 <0>         0.1330
     34 H8         -5.7550    2.2131    2.1185 H         1 <0>         0.1423
     35 H9          0.5767    6.1397   -0.5221 H         1 <0>         0.2780
     36 H10        -2.3086    4.4355   -1.6055 H         1 <0>         0.1488
     37 H11        -4.4442    5.4936   -2.2185 H         1 <0>         0.1460
     38 H12        -3.0172    9.2384   -0.7349 H         1 <0>         0.1562
     39 H13        -0.8848    8.1802   -0.1110 H         1 <0>         0.1493
     40 H14        -5.6306    6.7592   -3.3885 H         1 <0>         0.0719
     41 H15        -6.2910    6.3734   -1.7811 H         1 <0>         0.0673
     42 H16        -6.9173    7.7706   -2.6888 H         1 <0>         0.1158
@<TRIPOS>BOND
     1    1    2 1
     2    1   28 1
     3    1   29 1
     4    1   30 1
     5    2    3 1
     6    3    8 ar
     7    3    4 ar
     8    4    5 ar
     9    4   31 1
    10    5    6 ar
    11    5   32 1
    12    6    7 ar
    13    6    9 1
    14    7    8 ar
    15    7   33 1
    16    8   34 1
    17    9   10 2
    18    9   16 1
    19   10   26 1
    20   10   11 1
    21   11   13 1
    22   11   12 2
    23   13   15 2
    24   14   16 1
    25   15   17 1
    26   15   16 1
    27   17   18 1
    28   17   35 1
    29   18   23 ar
    30   18   19 ar
    31   19   20 ar
    32   19   36 1
    33   20   21 ar
    34   20   37 1
    35   21   22 ar
    36   21   24 1
    37   22   23 ar
    38   22   38 1
    39   23   39 1
    40   24   25 1
    41   25   40 1
    42   25   41 1
    43   25   42 1
    44   26   27 3
@<TRIPOS>MOLECULE
ZINC00173711
   42    44     0     0     0
SMALL
USER_CHARGES

@<TRIPOS>ATOM
      1 C1         -7.3372    0.5645    2.0366 C.3       1 <0>        -0.0643
      2 O1         -6.3293   -0.1463    1.3151 O.3       1 <0>        -0.2079
      3 C2         -5.1385    0.4817    1.1392 C.ar      1 <0>         0.1162
      4 C3         -4.1153   -0.1542    0.4464 C.ar      1 <0>        -0.1624
      5 C4         -2.9058    0.4796    0.2660 C.ar      1 <0>        -0.0597
      6 C5         -2.7085    1.7633    0.7803 C.ar      1 <0>        -0.1082
      7 C6         -3.7375    2.3968    1.4812 C.ar      1 <0>        -0.0376
      8 C7         -4.9459    1.7585    1.6529 C.ar      1 <0>        -0.2327
      9 C8         -1.4125    2.4468    0.5889 C.ar      1 <0>         0.2184
     10 C9         -0.2074    1.7713    0.8595 C.ar      1 <0>        -0.3387
     11 C10         1.0135    2.4590    0.6365 C.ar      1 <0>         0.2953
     12 O2          2.0822    1.9163    0.8571 O.3       1 <0>        -0.1661
     13 N1          0.9659    3.7361    0.2027 N.ar      1 <0>        -0.3304
     14 H1          1.9223    0.9796    1.1686 H         1 <0>         0.2819
     15 C11        -0.2324    4.3400   -0.0263 C.ar      1 <0>         0.2737
     16 N2         -1.3752    3.7103    0.1578 N.ar      1 <0>        -0.3049
     17 N3         -0.2507    5.6373   -0.4598 N.pl3     1 <0>        -0.2440
     18 C12        -1.4647    6.2420   -0.8086 C.ar      1 <0>         0.0245
     19 C13        -2.4699    5.4902   -1.4025 C.ar      1 <0>        -0.0768
     20 C14        -3.6689    6.0860   -1.7408 C.ar      1 <0>        -0.2070
     21 C15        -3.8651    7.4376   -1.4981 C.ar      1 <0>         0.0837
     22 C16        -2.8593    8.1906   -0.9101 C.ar      1 <0>        -0.1440
     23 C17        -1.6619    7.5951   -0.5658 C.ar      1 <0>        -0.1204
     24 O3         -5.0441    8.0247   -1.8363 O.3       1 <0>        -0.2127
     25 C18        -6.0354    7.1897   -2.4380 C.3       1 <0>        -0.0627
     26 C19        -0.2133    0.4200    1.3334 C.1       1 <0>        -0.0836
     27 N4         -0.2181   -0.6519    1.7093 N.1       1 <0>        -0.0493
     28 H2         -8.2358   -0.0487    2.1051 H         1 <0>         0.1107
     29 H3         -6.9748    0.7913    3.0393 H         1 <0>         0.0711
     30 H4         -7.5701    1.4933    1.5157 H         1 <0>         0.0692
     31 H5         -4.2686   -1.1468    0.0493 H         1 <0>         0.1503
     32 H6         -2.1110   -0.0154   -0.2723 H         1 <0>         0.1434
     33 H7         -3.5870    3.3873    1.8846 H         1 <0>         0.1479
     34 H8         -5.7435    2.2493    2.1907 H         1 <0>         0.1399
     35 H9          0.5773    6.1384   -0.5256 H         1 <0>         0.2596
     36 H10        -2.3157    4.4389   -1.5956 H         1 <0>         0.1611
     37 H11        -4.4524    5.5004   -2.1987 H         1 <0>         0.1394
     38 H12        -3.0126    9.2429   -0.7217 H         1 <0>         0.1465
     39 H13        -0.8791    8.1813   -0.1078 H         1 <0>         0.1363
     40 H14        -5.6423    6.7679   -3.3631 H         1 <0>         0.0684
     41 H15        -6.2958    6.3831   -1.7527 H         1 <0>         0.0683
     42 H16        -6.9242    7.7813   -2.6575 H         1 <0>         0.1076
@<TRIPOS>BOND
     1    1    2 1
     2    1   28 1
     3    1   29 1
     4    1   30 1
     5    2    3 1
     6    3    8 ar
     7    3    4 ar
     8    4    5 ar
     9    4   31 1
    10    5    6 ar
    11    5   32 1
    12    6    7 ar
    13    6    9 1
    14    7    8 ar
    15    7   33 1
    16    8   34 1
    17    9   10 ar
    18    9   16 ar
    19   10   26 1
    20   10   11 ar
    21   11   13 ar
    22   11   12 1
    23   12   14 1
    24   13   15 ar
    25   15   17 1
    26   15   16 ar
    27   17   18 1
    28   17   35 1
    29   18   23 ar
    30   18   19 ar
    31   19   20 ar
    32   19   36 1
    33   20   21 ar
    34   20   37 1
    35   21   22 ar
    36   21   24 1
    37   22   23 ar
    38   22   38 1
    39   23   39 1
    40   24   25 1
    41   25   40 1
    42   25   41 1
    43   25   42 1
    44   26   27 3
@<TRIPOS>MOLECULE
ZINC00174868
   40    42     0     0     0
SMALL
USER_CHARGES

@<TRIPOS>ATOM
      1 C1          4.0711    5.0987   -1.5024 C.3       1 <0>        -0.2118
      2 C2          2.7891    4.2639   -1.4877 C.3       1 <0>        -0.1595
      3 C3          2.3657    4.0049   -0.0404 C.3       1 <0>        -0.1209
      4 C4          1.1029    3.1825   -0.0260 C.ar      1 <0>        -0.1308
      5 C5          1.1697    1.7966   -0.0076 C.ar      1 <0>        -0.0914
      6 C6         -0.0135    1.0783    0.0057 C.ar      1 <0>        -0.1689
      7 C7         -1.2244    1.7679   -0.0056 C.ar      1 <0>         0.0314
      8 N1         -1.2447    3.0945   -0.0175 N.ar      1 <0>        -0.1574
      9 C8         -0.1337    3.8020   -0.0304 C.ar      1 <0>        -0.0394
     10 C9         -2.5007    1.0130    0.0017 C.ar      1 <0>        -0.0009
     11 C10        -2.4852   -0.3819    0.0140 C.ar      1 <0>        -0.1415
     12 C11        -3.6693   -1.0840    0.0257 C.ar      1 <0>        -0.0878
     13 C12        -4.8875   -0.3987    0.0144 C.ar      1 <0>        -0.1412
     14 C13        -4.9015    0.9988   -0.0033 C.ar      1 <0>        -0.0698
     15 C14        -3.7158    1.6984   -0.0096 C.ar      1 <0>        -0.1138
     16 C15        -6.1577   -1.1501    0.0217 C.2       1 <0>         0.3941
     17 O1         -7.2132   -0.5578    0.1269 O.2       1 <0>        -0.3200
     18 N2         -6.1468   -2.4933   -0.0883 N.am      1 <0>        -0.1821
     19 C16        -7.2219   -3.3062   -0.1910 C.2       1 <0>         0.0382
     20 N3         -6.7930   -4.5373   -0.2815 N.2       1 <0>        -0.2613
     21 C17        -5.4551   -4.5567   -0.2311 C.2       1 <0>         0.1393
     22 N4         -5.0164   -3.3264   -0.1129 N.2       1 <0>        -0.1953
     23 N5         -4.6587   -5.6981   -0.2945 N.pl3     1 <0>        -0.3780
     24 H1          4.3728    5.2832   -2.5334 H         1 <0>         0.0764
     25 H2          3.8913    6.0496   -1.0007 H         1 <0>         0.0738
     26 H3          4.8627    4.5582   -0.9834 H         1 <0>         0.0730
     27 H4          2.9689    3.3130   -1.9893 H         1 <0>         0.0840
     28 H5          1.9975    4.8044   -2.0066 H         1 <0>         0.0855
     29 H6          2.1858    4.9557    0.4612 H         1 <0>         0.0911
     30 H7          3.1572    3.4643    0.4785 H         1 <0>         0.0901
     31 H8          2.1234    1.2899   -0.0034 H         1 <0>         0.1394
     32 H9          0.0016   -0.0015    0.0202 H         1 <0>         0.1417
     33 H10        -0.1892    4.8805   -0.0443 H         1 <0>         0.1622
     34 H11        -1.5438   -0.9112    0.0182 H         1 <0>         0.1345
     35 H12        -3.6570   -2.1639    0.0390 H         1 <0>         0.1924
     36 H13        -5.8420    1.5296   -0.0117 H         1 <0>         0.1526
     37 H14        -3.7263    2.7782   -0.0230 H         1 <0>         0.1606
     38 H15        -8.2553   -2.9926   -0.1996 H         1 <0>         0.2276
     39 H16        -3.6929   -5.6186   -0.2508 H         1 <0>         0.2396
     40 H17        -5.0699   -6.5722   -0.3823 H         1 <0>         0.2439
@<TRIPOS>BOND
     1    1    2 1
     2    1   24 1
     3    1   25 1
     4    1   26 1
     5    2    3 1
     6    2   27 1
     7    2   28 1
     8    3    4 1
     9    3   29 1
    10    3   30 1
    11    4    9 ar
    12    4    5 ar
    13    5    6 ar
    14    5   31 1
    15    6    7 ar
    16    6   32 1
    17    7    8 ar
    18    7   10 1
    19    8    9 ar
    20    9   33 1
    21   10   15 ar
    22   10   11 ar
    23   11   12 ar
    24   11   34 1
    25   12   13 ar
    26   12   35 1
    27   13   14 ar
    28   13   16 1
    29   14   15 ar
    30   14   36 1
    31   15   37 1
    32   16   17 2
    33   16   18 am
    34   18   22 1
    35   18   19 1
    36   19   20 2
    37   19   38 1
    38   20   21 1
    39   21   22 2
    40   21   23 1
    41   23   39 1
    42   23   40 1
@<TRIPOS>MOLECULE
ZINC00175333
   39    41     0     0     0
SMALL
USER_CHARGES

@<TRIPOS>ATOM
      1 C1        -10.3084   -4.0045    0.0734 C.3       1 <0>        -0.2155
      2 C2         -8.9185   -4.6439    0.0570 C.3       1 <0>        -0.0035
      3 O1         -7.9066   -3.6026    0.0541 O.3       1 <0>        -0.2677
      4 C3         -6.6191   -4.0006    0.0402 C.2       1 <0>         0.3559
      5 O2         -6.3495   -5.1854    0.0307 O.2       1 <0>        -0.3654
      6 C4         -5.5384   -2.9990    0.0364 C.ar      1 <0>        -0.1207
      7 C5         -5.8375   -1.6287    0.0468 C.ar      1 <0>        -0.0798
      8 C6         -4.8592   -0.6908    0.0427 C.ar      1 <0>        -0.0980
      9 C7         -3.4908   -1.0609    0.0286 C.ar      1 <0>         0.0429
     10 C8         -3.2143   -2.4505    0.0183 C.ar      1 <0>        -0.2820
     11 C9         -4.1978   -3.4004    0.0220 C.ar      1 <0>        -0.0057
     12 S1         -1.4377   -2.4812   -0.0049 S.3       1 <0>         0.2461
     13 C10        -1.1857   -0.7116    0.0096 C.2       1 <0>         0.0248
     14 N1         -2.4185   -0.2545    0.0233 N.2       1 <0>        -0.2055
     15 N2          0.0021   -0.0041    0.0020 N.am      1 <0>        -0.2777
     16 C11        -0.0162    1.3436    0.0094 C.2       1 <0>         0.3450
     17 O3         -1.0773    1.9371    0.0177 O.2       1 <0>        -0.2912
     18 C12         1.2507    2.0982    0.0014 C.ar      1 <0>        -0.1973
     19 C13         2.4718    1.4171   -0.0082 C.ar      1 <0>        -0.0545
     20 C14         3.6521    2.1242   -0.0210 C.ar      1 <0>        -0.2191
     21 C15         3.6315    3.5163   -0.0134 C.ar      1 <0>         0.1497
     22 C16         2.4173    4.1975    0.0015 C.ar      1 <0>        -0.2221
     23 C17         1.2334    3.4963    0.0091 C.ar      1 <0>        -0.0096
     24 N3          4.8260    4.2278   -0.0210 N.pl3     1 <0>        -0.4065
     25 H1        -10.4157   -3.3911    0.9680 H         1 <0>         0.0863
     26 H2        -10.4317   -3.3805   -0.8118 H         1 <0>         0.0863
     27 H3        -11.0680   -4.7862    0.0755 H         1 <0>         0.0891
     28 H4         -8.8112   -5.2573   -0.8376 H         1 <0>         0.0894
     29 H5         -8.7952   -5.2679    0.9422 H         1 <0>         0.0894
     30 H6         -6.8705   -1.3139    0.0576 H         1 <0>         0.1518
     31 H7         -5.1264    0.3556    0.0510 H         1 <0>         0.1537
     32 H8         -3.9427   -4.4498    0.0134 H         1 <0>         0.1609
     33 H9          0.8486   -0.4776   -0.0086 H         1 <0>         0.2508
     34 H10         2.4885    0.3372   -0.0093 H         1 <0>         0.1199
     35 H11         4.5956    1.5988   -0.0325 H         1 <0>         0.1343
     36 H12         2.4047    5.2774    0.0074 H         1 <0>         0.1383
     37 H13         0.2919    4.0253    0.0206 H         1 <0>         0.1590
     38 H14         4.8129    5.1977   -0.0160 H         1 <0>         0.2250
     39 H15         5.6725    3.7543   -0.0313 H         1 <0>         0.2234
@<TRIPOS>BOND
     1    1    2 1
     2    1   25 1
     3    1   26 1
     4    1   27 1
     5    2    3 1
     6    2   28 1
     7    2   29 1
     8    3    4 1
     9    4    5 2
    10    4    6 1
    11    6   11 ar
    12    6    7 ar
    13    7    8 ar
    14    7   30 1
    15    8    9 ar
    16    8   31 1
    17    9   14 1
    18    9   10 ar
    19   10   11 ar
    20   10   12 1
    21   11   32 1
    22   12   13 1
    23   13   14 2
    24   13   15 1
    25   15   16 am
    26   15   33 1
    27   16   17 2
    28   16   18 1
    29   18   23 ar
    30   18   19 ar
    31   19   20 ar
    32   19   34 1
    33   20   21 ar
    34   20   35 1
    35   21   22 ar
    36   21   24 1
    37   22   23 ar
    38   22   36 1
    39   23   37 1
    40   24   38 1
    41   24   39 1
@<TRIPOS>MOLECULE
ZINC00177981
   37    39     0     0     0
SMALL
USER_CHARGES

@<TRIPOS>ATOM
      1 C1          2.9763   -3.7966    6.0872 C.3       1 <0>        -0.1717
      2 C2          2.3489   -3.3476    4.7927 C.ar      1 <0>        -0.0635
      3 C3          1.9182   -4.2814    3.8616 C.ar      1 <0>        -0.1282
      4 C4          1.3449   -3.8994    2.6767 C.ar      1 <0>        -0.0184
      5 C5          1.1733   -2.5310    2.3653 C.ar      1 <0>        -0.0019
      6 C6          1.6235   -1.6086    3.3368 C.ar      1 <0>        -0.2503
      7 C7          2.1969   -2.0002    4.5204 C.ar      1 <0>        -0.0863
      8 S1          1.2439   -0.0464    2.5805 S.3       1 <0>         0.2774
      9 C8          0.5268   -0.6929    1.0765 C.2       1 <0>         0.0083
     10 N1          0.6315   -1.9907    1.2516 N.2       1 <0>        -0.2336
     11 N2          0.0021   -0.0041    0.0020 N.pl3     1 <0>        -0.7508
     12 S2         -0.0204    1.6518    0.0111 S.o2      1 <0>         2.7533
     13 O1         -0.5885    2.0570   -1.2267 O.2       1 <0>        -0.8998
     14 O2         -0.5648    2.0437    1.2638 O.2       1 <0>        -0.8925
     15 C9          1.6555    2.1956   -0.0020 C.ar      1 <0>        -0.8273
     16 C10         2.3214    2.4075    1.1914 C.ar      1 <0>         0.0269
     17 C11         3.6367    2.8283    1.1847 C.ar      1 <0>        -0.2280
     18 C12         4.2874    3.0496   -0.0225 C.ar      1 <0>         0.1746
     19 C13         3.6138    2.8412   -1.2194 C.ar      1 <0>        -0.2311
     20 C14         2.3003    2.4149   -1.2055 C.ar      1 <0>         0.0241
     21 N3          5.6160    3.4802   -0.0329 N.pl3     1 <0>        -0.4053
     22 C15         0.8920   -4.9495    1.6953 C.3       1 <0>        -0.1738
     23 H1          4.0543   -3.8897    5.9554 H         1 <0>         0.0878
     24 H2          2.7674   -3.0631    6.8659 H         1 <0>         0.0839
     25 H3          2.5609   -4.7620    6.3766 H         1 <0>         0.0847
     26 H4          2.0377   -5.3334    4.0751 H         1 <0>         0.1363
     27 H5          2.5267   -1.2608    5.2352 H         1 <0>         0.1376
     28 H6         -0.3536   -0.4898   -0.7586 H         1 <0>         0.2699
     29 H7          1.8134    2.2398    2.1296 H         1 <0>         0.1559
     30 H8          4.1576    2.9894    2.1170 H         1 <0>         0.1380
     31 H9          4.1166    3.0127   -2.1597 H         1 <0>         0.1371
     32 H10         1.7761    2.2524   -2.1357 H         1 <0>         0.1483
     33 H11         6.0694    3.6341   -0.8765 H         1 <0>         0.2252
     34 H12         6.0854    3.6254    0.8035 H         1 <0>         0.2254
     35 H13         1.7096   -5.1875    1.0148 H         1 <0>         0.0889
     36 H14         0.5959   -5.8485    2.2359 H         1 <0>         0.0766
     37 H15         0.0430   -4.5721    1.1254 H         1 <0>         0.1024
@<TRIPOS>BOND
     1    1    2 1
     2    1   23 1
     3    1   24 1
     4    1   25 1
     5    2    7 ar
     6    2    3 ar
     7    3    4 ar
     8    3   26 1
     9    4    5 ar
    10    4   22 1
    11    5   10 1
    12    5    6 ar
    13    6    7 ar
    14    6    8 1
    15    7   27 1
    16    8    9 1
    17    9   10 2
    18    9   11 1
    19   11   12 1
    20   11   28 1
    21   12   13 2
    22   12   14 2
    23   12   15 1
    24   15   20 ar
    25   15   16 ar
    26   16   17 ar
    27   16   29 1
    28   17   18 ar
    29   17   30 1
    30   18   19 ar
    31   18   21 1
    32   19   20 ar
    33   19   31 1
    34   20   32 1
    35   21   33 1
    36   21   34 1
    37   22   35 1
    38   22   36 1
    39   22   37 1
@<TRIPOS>MOLECULE
ZINC00179064
   39    41     0     0     0
SMALL
USER_CHARGES

@<TRIPOS>ATOM
      1 C1          1.1174    3.6193    0.0102 C.3       1 <0>        -0.1634
      2 C2          1.1632    2.1130    0.0023 C.ar      1 <0>        -0.1404
      3 C3          2.3766    1.4508   -0.0134 C.ar      1 <0>        -0.0374
      4 C4          2.4019    0.0787   -0.0201 C.ar      1 <0>        -0.2923
      5 C5          1.2277   -0.7086   -0.0130 C.ar      1 <0>         0.0456
      6 C6          0.0021   -0.0041    0.0020 C.ar      1 <0>        -0.1626
      7 C7         -0.0166    1.3725    0.0096 C.ar      1 <0>         0.1273
      8 N1         -1.2457    2.0413    0.0190 N.pl3     1 <0>        -0.4223
      9 N2          1.4195   -2.0455   -0.0212 N.2       1 <0>        -0.1969
     10 C8          2.6157   -2.5866   -0.0347 C.2       1 <0>         0.0067
     11 S1          3.6827   -1.1529   -0.0377 S.3       1 <0>         0.2243
     12 N3          2.9623   -3.9268   -0.0443 N.am      1 <0>        -0.2772
     13 C9          2.0010   -4.8715   -0.0394 C.2       1 <0>         0.3323
     14 O1          0.8301   -4.5468   -0.0267 O.2       1 <0>        -0.2779
     15 C10         2.3715   -6.3042   -0.0496 C.ar      1 <0>        -0.0987
     16 C11         3.7165   -6.6770   -0.0701 C.ar      1 <0>        -0.1256
     17 C12         4.0617   -8.0111   -0.0747 C.ar      1 <0>        -0.0865
     18 C13         3.0660   -8.9897   -0.0697 C.ar      1 <0>        -0.0877
     19 C14         1.7208   -8.6166   -0.0546 C.ar      1 <0>        -0.0750
     20 C15         1.3759   -7.2825   -0.0446 C.ar      1 <0>        -0.0799
     21 C16         3.4363  -10.4218   -0.0799 C.2       1 <0>         0.3449
     22 O2          2.5701  -11.2730   -0.0751 O.2       1 <0>        -0.3521
     23 O3          4.7342  -10.7817   -0.0945 O.3       1 <0>        -0.2673
     24 C17         5.0236  -12.2045   -0.1039 C.3       1 <0>        -0.0509
     25 H1          1.1159    3.9773    1.0398 H         1 <0>         0.0850
     26 H2          1.9911    4.0121   -0.5098 H         1 <0>         0.0846
     27 H3          0.2120    3.9579   -0.4935 H         1 <0>         0.0746
     28 H4          3.3002    2.0105   -0.0191 H         1 <0>         0.1373
     29 H5         -0.9290   -0.5513    0.0080 H         1 <0>         0.1492
     30 H6         -2.0732    1.5353    0.0202 H         1 <0>         0.2218
     31 H7         -1.2701    3.0110    0.0244 H         1 <0>         0.2223
     32 H8          3.8970   -4.1860   -0.0545 H         1 <0>         0.2503
     33 H9          4.4867   -5.9200   -0.0782 H         1 <0>         0.1281
     34 H10         5.1024   -8.2996   -0.0864 H         1 <0>         0.1537
     35 H11         0.9504   -9.3736   -0.0503 H         1 <0>         0.1643
     36 H12         0.3353   -6.9938   -0.0325 H         1 <0>         0.1673
     37 H13         4.5837  -12.6590   -0.9916 H         1 <0>         0.0847
     38 H14         6.1030  -12.3556   -0.1153 H         1 <0>         0.1050
     39 H15         4.6015  -12.6670    0.7883 H         1 <0>         0.0847
@<TRIPOS>BOND
     1    1    2 1
     2    1   25 1
     3    1   26 1
     4    1   27 1
     5    2    7 ar
     6    2    3 ar
     7    3    4 ar
     8    3   28 1
     9    4   11 1
    10    4    5 ar
    11    5    6 ar
    12    5    9 1
    13    6    7 ar
    14    6   29 1
    15    7    8 1
    16    8   30 1
    17    8   31 1
    18    9   10 2
    19   10   11 1
    20   10   12 1
    21   12   13 am
    22   12   32 1
    23   13   14 2
    24   13   15 1
    25   15   20 ar
    26   15   16 ar
    27   16   17 ar
    28   16   33 1
    29   17   18 ar
    30   17   34 1
    31   18   19 ar
    32   18   21 1
    33   19   20 ar
    34   19   35 1
    35   20   36 1
    36   21   22 2
    37   21   23 1
    38   23   24 1
    39   24   37 1
    40   24   38 1
    41   24   39 1
@<TRIPOS>MOLECULE
ZINC00179323
   42    43     0     0     0
SMALL
USER_CHARGES

@<TRIPOS>ATOM
      1 C1         -0.1033   -4.7444    6.7537 C.3       1 <0>        -0.1830
      2 C2          0.2448   -3.4925    5.9904 C.ar      1 <0>        -0.0191
      3 C3          1.5652   -3.2059    5.6980 C.ar      1 <0>        -0.1454
      4 C4          1.8844   -2.0576    4.9978 C.ar      1 <0>        -0.0006
      5 C5          0.8833   -1.1963    4.5892 C.ar      1 <0>        -0.7534
      6 C6         -0.4366   -1.4805    4.8858 C.ar      1 <0>        -0.0344
      7 C7         -0.7562   -2.6310    5.5822 C.ar      1 <0>        -0.1565
      8 S1          1.2903    0.2674    3.6966 S.o2      1 <0>         2.7637
      9 O1          2.6362    0.5828    4.0259 O.2       1 <0>        -0.9139
     10 O2          0.2212    1.1802    3.9043 O.2       1 <0>        -0.9181
     11 N1          1.2754   -0.1207    2.0868 N.pl3     1 <0>        -0.8486
     12 C8          0.0228   -0.5218    1.4416 C.3       1 <0>         0.0316
     13 H1         -0.8197   -0.1015    1.9910 H         1 <0>         0.1281
     14 C9          0.0021   -0.0041    0.0020 C.3       1 <0>        -0.1213
     15 C10        -0.0184    1.5028    0.0103 C.ar      1 <0>        -0.0828
     16 C11        -1.2248    2.1776    0.0197 C.ar      1 <0>        -0.1205
     17 C12        -1.2435    3.5598    0.0322 C.ar      1 <0>        -0.1192
     18 C13        -0.0559    4.2672    0.0247 C.ar      1 <0>        -0.1211
     19 C14         1.1505    3.5924    0.0100 C.ar      1 <0>        -0.1203
     20 C15         1.1693    2.2102    0.0028 C.ar      1 <0>        -0.1163
     21 C16        -0.0807   -2.0252    1.4363 C.2       1 <0>         0.2731
     22 O3          0.8048   -2.6957    1.9236 O.2       1 <0>        -0.3339
     23 N2         -1.1571   -2.6247    0.8902 N.am      1 <0>        -0.3318
     24 N3         -1.2509   -3.9875    0.8854 N.3       1 <0>        -0.2119
     25 H2         -0.1033   -4.5301    7.8225 H         1 <0>         0.0925
     26 H3         -1.0920   -5.0905    6.4525 H         1 <0>         0.0825
     27 H4          0.6337   -5.5180    6.5383 H         1 <0>         0.0876
     28 H5          2.3473   -3.8790    6.0169 H         1 <0>         0.1367
     29 H6          2.9160   -1.8335    4.7696 H         1 <0>         0.1508
     30 H7         -1.2183   -0.8054    4.5704 H         1 <0>         0.1395
     31 H8         -1.7878   -2.8551    5.8104 H         1 <0>         0.1307
     32 H9          2.0960   -0.0825    1.5711 H         1 <0>         0.2515
     33 H10        -0.8878   -0.3767   -0.5053 H         1 <0>         0.0920
     34 H11         0.8920   -0.3525   -0.5222 H         1 <0>         0.1073
     35 H12        -2.1527    1.6249    0.0211 H         1 <0>         0.1228
     36 H13        -2.1860    4.0870    0.0434 H         1 <0>         0.1306
     37 H14        -0.0705    5.3471    0.0299 H         1 <0>         0.1312
     38 H15         2.0784    4.1450    0.0037 H         1 <0>         0.1328
     39 H16         2.1118    1.6830   -0.0091 H         1 <0>         0.1278
     40 H17        -1.8653   -2.0885    0.5005 H         1 <0>         0.2209
     41 H18        -1.1747   -4.3584    1.8206 H         1 <0>         0.1624
     42 H19        -2.1071   -4.2895    0.4453 H         1 <0>         0.1556
@<TRIPOS>BOND
     1    1    2 1
     2    1   25 1
     3    1   26 1
     4    1   27 1
     5    2    7 ar
     6    2    3 ar
     7    3    4 ar
     8    3   28 1
     9    4    5 ar
    10    4   29 1
    11    5    6 ar
    12    5    8 1
    13    6    7 ar
    14    6   30 1
    15    7   31 1
    16    8    9 2
    17    8   10 2
    18    8   11 1
    19   11   12 1
    20   11   32 1
    21   12   13 1
    22   12   14 1
    23   12   21 1
    24   14   15 1
    25   14   33 1
    26   14   34 1
    27   15   20 ar
    28   15   16 ar
    29   16   17 ar
    30   16   35 1
    31   17   18 ar
    32   17   36 1
    33   18   19 ar
    34   18   37 1
    35   19   20 ar
    36   19   38 1
    37   20   39 1
    38   21   22 2
    39   21   23 am
    40   23   24 1
    41   23   40 1
    42   24   41 1
    43   24   42 1
@<TRIPOS>MOLECULE
ZINC00181056
   42    44     0     0     0
SMALL
USER_CHARGES

@<TRIPOS>ATOM
      1 C1         -7.5253   -3.7807   -2.9974 C.3       1 <0>        -0.2239
      2 C2         -8.5314   -3.1614   -2.0253 C.3       1 <0>         0.0986
      3 C3         -9.0241   -1.8259   -2.5809 C.3       1 <0>        -0.1370
      4 C4         -7.9391   -0.7846   -2.5234 C.ar      1 <0>        -0.0330
      5 C5         -8.0046    0.3092   -3.3674 C.ar      1 <0>        -0.1390
      6 C6         -7.0292    1.2900   -3.3142 C.ar      1 <0>        -0.1011
      7 C7         -5.9711    1.1807   -2.4291 C.ar      1 <0>        -0.1378
      8 C8         -5.8877    0.0910   -1.5864 C.ar      1 <0>        -0.1057
      9 C9         -6.8725   -0.8951   -1.6317 C.ar      1 <0>        -0.1164
     10 C10        -6.7847   -2.0722   -0.7335 C.2       1 <0>         0.2305
     11 N1         -5.7313   -2.2915    0.0168 N.2       1 <0>        -0.2591
     12 C11        -4.5464   -1.6703   -0.2693 C.ar      1 <0>         0.1149
     13 C12        -3.9593   -1.8244   -1.5273 C.ar      1 <0>        -0.2008
     14 C13        -2.7643   -1.1955   -1.8087 C.ar      1 <0>        -0.0086
     15 C14        -2.1473   -0.4135   -0.8483 C.ar      1 <0>        -0.7971
     16 C15        -2.7206   -0.2607    0.4018 C.ar      1 <0>        -0.0106
     17 C16        -3.9180   -0.8794    0.6953 C.ar      1 <0>        -0.1851
     18 S1         -0.6207    0.3856   -1.2164 S.o2      1 <0>         2.7637
     19 O1         -0.0151   -0.3587   -2.2645 O.2       1 <0>        -0.9201
     20 O2          0.0273    0.6161    0.0271 O.2       1 <0>        -0.9199
     21 N2         -0.9859    1.8744   -1.8429 N.pl3     1 <0>        -0.9323
     22 N3         -7.8806   -2.9275   -0.7247 N.pl3     1 <0>        -0.3744
     23 C17        -9.7170   -4.1108   -1.8413 C.3       1 <0>        -0.2163
     24 H1         -7.1678   -4.7287   -2.5953 H         1 <0>         0.0905
     25 H2         -8.0084   -3.9532   -3.9593 H         1 <0>         0.0824
     26 H3         -6.6832   -3.1017   -3.1304 H         1 <0>         0.0872
     27 H4         -9.3351   -1.9621   -3.6167 H         1 <0>         0.1003
     28 H5         -9.8773   -1.4867   -1.9935 H         1 <0>         0.1049
     29 H6         -8.8265    0.4043   -4.0615 H         1 <0>         0.1344
     30 H7         -7.0900    2.1425   -3.9744 H         1 <0>         0.1329
     31 H8         -5.2110    1.9473   -2.3980 H         1 <0>         0.1322
     32 H9         -5.0632    0.0025   -0.8945 H         1 <0>         0.1657
     33 H10        -4.4399   -2.4341   -2.2780 H         1 <0>         0.1441
     34 H11        -2.3090   -1.3140   -2.7808 H         1 <0>         0.1521
     35 H12        -2.2315    0.3478    1.1481 H         1 <0>         0.1531
     36 H13        -4.3664   -0.7560    1.6700 H         1 <0>         0.1507
     37 H14        -1.9121    2.1453   -1.9410 H         1 <0>         0.2266
     38 H15        -0.2736    2.4770   -2.1080 H         1 <0>         0.2417
     39 H16        -8.1980   -3.3463    0.0906 H         1 <0>         0.2489
     40 H17       -10.4346   -3.6665   -1.1515 H         1 <0>         0.0828
     41 H18       -10.1975   -4.2828   -2.8045 H         1 <0>         0.0909
     42 H19        -9.3636   -5.0593   -1.4370 H         1 <0>         0.0893
@<TRIPOS>BOND
     1    1    2 1
     2    1   24 1
     3    1   25 1
     4    1   26 1
     5    2   22 1
     6    2    3 1
     7    2   23 1
     8    3    4 1
     9    3   27 1
    10    3   28 1
    11    4    9 ar
    12    4    5 ar
    13    5    6 ar
    14    5   29 1
    15    6    7 ar
    16    6   30 1
    17    7    8 ar
    18    7   31 1
    19    8    9 ar
    20    8   32 1
    21    9   10 1
    22   10   11 2
    23   10   22 1
    24   11   12 1
    25   12   17 ar
    26   12   13 ar
    27   13   14 ar
    28   13   33 1
    29   14   15 ar
    30   14   34 1
    31   15   16 ar
    32   15   18 1
    33   16   17 ar
    34   16   35 1
    35   17   36 1
    36   18   19 2
    37   18   20 2
    38   18   21 1
    39   21   37 1
    40   21   38 1
    41   22   39 1
    42   23   40 1
    43   23   41 1
    44   23   42 1
@<TRIPOS>MOLECULE
ZINC00182207
   36    37     0     0     0
SMALL
USER_CHARGES

@<TRIPOS>ATOM
      1 C1         -1.0035   -5.2882    8.5290 C.3       1 <0>        -0.2405
      2 C2         -1.8312   -4.1403    8.0109 C.2       1 <0>         0.3250
      3 O1         -1.2928   -3.1046    7.6817 O.2       1 <0>        -0.3315
      4 N1         -3.1697   -4.2646    7.9136 N.am      1 <0>        -0.8300
      5 S1         -4.0792   -3.0032    7.3443 S.o2      1 <0>         2.7487
      6 O2         -3.6617   -1.8472    8.0574 O.2       1 <0>        -0.8832
      7 O3         -5.4291   -3.4471    7.3360 O.2       1 <0>        -0.9106
      8 C3         -3.6223   -2.7492    5.6616 C.ar      1 <0>        -0.7801
      9 C4         -4.2938   -3.4196    4.6557 C.ar      1 <0>        -0.0146
     10 C5         -3.9387   -3.2220    3.3357 C.ar      1 <0>        -0.1576
     11 C6         -2.9057   -2.3494    3.0192 C.ar      1 <0>         0.1189
     12 C7         -2.2296   -1.6821    4.0322 C.ar      1 <0>        -0.1909
     13 C8         -2.5933   -1.8797    5.3498 C.ar      1 <0>         0.0120
     14 N2         -2.5432   -2.1473    1.6829 N.am      1 <0>        -0.3340
     15 C9         -3.4859   -2.1587    0.7198 C.2       1 <0>         0.2978
     16 O4         -4.6353   -2.4269    0.9994 O.2       1 <0>        -0.3267
     17 C10        -3.1120   -1.8383   -0.7044 C.3       1 <0>        -0.0974
     18 C11        -4.3384   -1.9198   -1.5763 C.2       1 <0>        -0.2563
     19 C12        -5.2277   -0.9466   -1.8919 C.2       1 <0>        -0.1511
     20 C13        -6.2912   -1.2532   -2.7198 C.2       1 <0>        -0.1735
     21 C14        -6.4136   -2.5180   -3.1916 C.2       1 <0>        -0.2994
     22 S2         -4.9976   -3.3233   -2.4611 S.3       1 <0>         0.3321
     23 H1         -0.7010   -5.9229    7.6961 H         1 <0>         0.1094
     24 H2         -0.1171   -4.8997    9.0304 H         1 <0>         0.1213
     25 H3         -1.5938   -5.8721    9.2351 H         1 <0>         0.0907
     26 H4         -3.6003   -5.0930    8.1769 H         1 <0>         0.2529
     27 H5         -5.0970   -4.0981    4.9024 H         1 <0>         0.1506
     28 H6         -4.4639   -3.7453    2.5504 H         1 <0>         0.1715
     29 H7         -1.4232   -1.0059    3.7895 H         1 <0>         0.1374
     30 H8         -2.0708   -1.3576    6.1378 H         1 <0>         0.1712
     31 H9         -1.6134   -1.9991    1.4498 H         1 <0>         0.2348
     32 H10        -2.3688   -2.5544   -1.0549 H         1 <0>         0.1125
     33 H11        -2.6976   -0.8313   -0.7535 H         1 <0>         0.1184
     34 H12        -5.1068    0.0535   -1.5025 H         1 <0>         0.1418
     35 H13        -7.0138   -0.4963   -2.9869 H         1 <0>         0.1434
     36 H14        -7.1709   -2.9313   -3.8413 H         1 <0>         0.1870
@<TRIPOS>BOND
     1    1    2 1
     2    1   23 1
     3    1   24 1
     4    1   25 1
     5    2    3 2
     6    2    4 am
     7    4    5 1
     8    4   26 1
     9    5    6 2
    10    5    7 2
    11    5    8 1
    12    8   13 ar
    13    8    9 ar
    14    9   10 ar
    15    9   27 1
    16   10   11 ar
    17   10   28 1
    18   11   12 ar
    19   11   14 1
    20   12   13 ar
    21   12   29 1
    22   13   30 1
    23   14   15 am
    24   14   31 1
    25   15   16 2
    26   15   17 1
    27   17   18 1
    28   17   32 1
    29   17   33 1
    30   18   22 1
    31   18   19 2
    32   19   20 1
    33   19   34 1
    34   20   21 2
    35   20   35 1
    36   21   22 1
    37   21   36 1
@<TRIPOS>MOLECULE
ZINC00182438
   40    41     0     0     0
SMALL
USER_CHARGES

@<TRIPOS>ATOM
      1 C1          1.1421    3.5931    0.0099 C.3       1 <0>        -0.1792
      2 C2          1.1702    2.0864    0.0021 C.ar      1 <0>        -0.0502
      3 C3         -0.0166    1.3754    0.0096 C.ar      1 <0>        -0.1394
      4 C4          0.0021   -0.0041    0.0020 C.ar      1 <0>        -0.0610
      5 C5          1.2219   -0.6823   -0.0132 C.ar      1 <0>        -0.1344
      6 C6          2.4156    0.0411   -0.0207 C.ar      1 <0>        -0.1026
      7 C7          2.3828    1.4202   -0.0130 C.ar      1 <0>        -0.1386
      8 C8          1.2495   -2.1605   -0.0210 C.2       1 <0>         0.3480
      9 O1          0.2084   -2.7878   -0.0140 O.2       1 <0>        -0.3654
     10 N1          2.4290   -2.8124   -0.0357 N.am      1 <0>        -0.3945
     11 C9          2.4563   -4.2771   -0.0433 C.3       1 <0>         0.0001
     12 C10         3.9080   -4.7600   -0.0599 C.3       1 <0>        -0.1505
     13 C11         3.9361   -6.2668   -0.0677 C.ar      1 <0>        -0.0196
     14 C12         3.9663   -6.9637    1.1257 C.ar      1 <0>        -0.1466
     15 C13         3.9877   -8.3459    1.1185 C.ar      1 <0>        -0.0198
     16 C14         3.9880   -9.0309   -0.0822 C.ar      1 <0>        -0.7632
     17 C15         3.9631   -8.3339   -1.2756 C.ar      1 <0>        -0.0264
     18 C16         3.9373   -6.9518   -1.2684 C.ar      1 <0>        -0.1464
     19 S1          4.0197  -10.7926   -0.0913 S.o2      1 <0>         2.7611
     20 O2          3.4893  -11.2149    1.1575 O.2       1 <0>        -0.9171
     21 O3          3.4632  -11.2023   -1.3330 O.2       1 <0>        -0.9124
     22 N2          5.6101  -11.2537   -0.1103 N.pl3     1 <0>        -0.9288
     23 H1          1.1450    3.9512    1.0394 H         1 <0>         0.0905
     24 H2          2.0204    3.9756   -0.5102 H         1 <0>         0.0837
     25 H3          0.2408    3.9423   -0.4938 H         1 <0>         0.0857
     26 H4         -0.9598    1.9014    0.0169 H         1 <0>         0.1373
     27 H5         -0.9251   -0.5579    0.0082 H         1 <0>         0.1578
     28 H6          3.3627   -0.4777   -0.0322 H         1 <0>         0.1220
     29 H7          3.3057    1.9812   -0.0192 H         1 <0>         0.1328
     30 H8          3.2598   -2.3118   -0.0413 H         1 <0>         0.2221
     31 H9          1.9580   -4.6545    0.8496 H         1 <0>         0.1010
     32 H10         1.9407   -4.6455   -0.9302 H         1 <0>         0.1009
     33 H11         4.4063   -4.3827   -0.9529 H         1 <0>         0.0956
     34 H12         4.4236   -4.3917    0.8270 H         1 <0>         0.0957
     35 H13         3.9698   -6.4285    2.0637 H         1 <0>         0.1400
     36 H14         4.0068   -8.8905    2.0509 H         1 <0>         0.1543
     37 H15         3.9634   -8.8691   -2.2137 H         1 <0>         0.1532
     38 H16         3.9179   -6.4072   -2.2009 H         1 <0>         0.1398
     39 H17         5.8777  -12.0895    0.3027 H         1 <0>         0.2443
     40 H18         6.2740  -10.6879   -0.5345 H         1 <0>         0.2302
@<TRIPOS>BOND
     1    1    2 1
     2    1   23 1
     3    1   24 1
     4    1   25 1
     5    2    7 ar
     6    2    3 ar
     7    3    4 ar
     8    3   26 1
     9    4    5 ar
    10    4   27 1
    11    5    6 ar
    12    5    8 1
    13    6    7 ar
    14    6   28 1
    15    7   29 1
    16    8    9 2
    17    8   10 am
    18   10   11 1
    19   10   30 1
    20   11   12 1
    21   11   31 1
    22   11   32 1
    23   12   13 1
    24   12   33 1
    25   12   34 1
    26   13   18 ar
    27   13   14 ar
    28   14   15 ar
    29   14   35 1
    30   15   16 ar
    31   15   36 1
    32   16   17 ar
    33   16   19 1
    34   17   18 ar
    35   17   37 1
    36   18   38 1
    37   19   20 2
    38   19   21 2
    39   19   22 1
    40   22   39 1
    41   22   40 1
@<TRIPOS>MOLECULE
ZINC00182687
   42    44     0     0     0
SMALL
USER_CHARGES

@<TRIPOS>ATOM
      1 C1          2.9243    4.0384    8.3022 C.ar      1 <0>        -0.1202
      2 C2          2.4385    3.7106    9.5546 C.ar      1 <0>        -0.1305
      3 C3          1.1362    3.2704    9.7017 C.ar      1 <0>        -0.1368
      4 C4          0.3137    3.1567    8.5926 C.ar      1 <0>         0.0346
      5 C5          0.8024    3.4868    7.3304 C.ar      1 <0>         0.0372
      6 C6          2.1122    3.9223    7.1901 C.ar      1 <0>        -0.1145
      7 N1         -0.0244    3.3739    6.2057 N.am      1 <0>        -0.3189
      8 C7          0.4966    2.9959    5.0216 C.2       1 <0>         0.3471
      9 O1          1.6960    2.8318    4.9098 O.2       1 <0>        -0.3530
     10 C8         -0.3903    2.7810    3.8588 C.ar      1 <0>        -0.1529
     11 C9         -1.7680    2.9690    3.9836 C.ar      1 <0>        -0.0545
     12 C10        -2.5899    2.7672    2.8944 C.ar      1 <0>        -0.1585
     13 C11        -2.0511    2.3846    1.6786 C.ar      1 <0>        -0.0048
     14 C12        -0.6874    2.1910    1.5496 C.ar      1 <0>        -0.7698
     15 C13         0.1460    2.3895    2.6311 C.ar      1 <0>         0.0332
     16 S1         -0.0125    1.6968   -0.0012 S.o2      1 <0>         2.7792
     17 O2          1.3448    2.1173   -0.0060 O.2       1 <0>        -0.9035
     18 O3         -0.9403    2.1060   -0.9968 O.2       1 <0>        -0.9117
     19 N2          0.0049    0.0411   -0.0223 N.pl3     1 <0>        -0.8502
     20 C14         1.1125   -0.8101    0.4361 C.3       1 <0>         0.0007
     21 C15         0.6905   -2.2761    0.2035 C.3       1 <0>        -0.1708
     22 C16        -0.3924   -2.1528   -0.9007 C.3       1 <0>        -0.1690
     23 C17        -1.0852   -0.8235   -0.5099 C.3       1 <0>        -0.0051
     24 O4         -0.9673    2.7235    8.7356 O.3       1 <0>        -0.2962
     25 H1          3.9424    4.3818    8.1923 H         1 <0>         0.1370
     26 H2          3.0783    3.7982   10.4203 H         1 <0>         0.1332
     27 H3          0.7601    3.0148   10.6812 H         1 <0>         0.1412
     28 H4          2.4957    4.1745    6.2125 H         1 <0>         0.1706
     29 H5         -0.9720    3.5677    6.2789 H         1 <0>         0.2413
     30 H6         -2.1892    3.2722    4.9307 H         1 <0>         0.1319
     31 H7         -3.6559    2.9123    2.9896 H         1 <0>         0.1415
     32 H8         -2.6986    2.2321    0.8277 H         1 <0>         0.1532
     33 H9          1.2109    2.2420    2.5280 H         1 <0>         0.1761
     34 H10         2.0131   -0.5865   -0.1357 H         1 <0>         0.0973
     35 H11         1.2938   -0.6426    1.4978 H         1 <0>         0.0789
     36 H12         0.2686   -2.7084    1.1108 H         1 <0>         0.0911
     37 H13         1.5357   -2.8669   -0.1495 H         1 <0>         0.0965
     38 H14        -1.0931   -2.9865   -0.8557 H         1 <0>         0.0939
     39 H15         0.0631   -2.0802   -1.8883 H         1 <0>         0.0991
     40 H16        -1.8160   -0.9947    0.2806 H         1 <0>         0.0749
     41 H17        -1.5645   -0.3753   -1.3802 H         1 <0>         0.1050
     42 H18        -1.0686    1.7646    8.6632 H         1 <0>         0.2260
@<TRIPOS>BOND
     1    1    6 ar
     2    1    2 ar
     3    1   25 1
     4    2    3 ar
     5    2   26 1
     6    3    4 ar
     7    3   27 1
     8    4    5 ar
     9    4   24 1
    10    5    6 ar
    11    5    7 1
    12    6   28 1
    13    7    8 am
    14    7   29 1
    15    8    9 2
    16    8   10 1
    17   10   15 ar
    18   10   11 ar
    19   11   12 ar
    20   11   30 1
    21   12   13 ar
    22   12   31 1
    23   13   14 ar
    24   13   32 1
    25   14   15 ar
    26   14   16 1
    27   15   33 1
    28   16   17 2
    29   16   18 2
    30   16   19 1
    31   19   23 1
    32   19   20 1
    33   20   21 1
    34   20   34 1
    35   20   35 1
    36   21   22 1
    37   21   36 1
    38   21   37 1
    39   22   23 1
    40   22   38 1
    41   22   39 1
    42   23   40 1
    43   23   41 1
    44   24   42 1
@<TRIPOS>MOLECULE
ZINC00183494
   43    44     0     0     0
SMALL
USER_CHARGES

@<TRIPOS>ATOM
      1 C1         -1.4229    7.1148    4.8018 C.3       1 <0>        -0.2023
      2 C2         -1.1871    8.4218    4.0421 C.3       1 <0>        -0.0753
      3 C3         -1.1961    9.5928    5.0267 C.3       1 <0>        -0.2047
      4 C4          0.1469    8.3630    3.3435 C.ar      1 <0>        -0.0927
      5 C5          1.3044    8.1900    4.0769 C.ar      1 <0>        -0.1053
      6 C6          2.5287    8.1351    3.4367 C.ar      1 <0>        -0.1447
      7 C7          2.5988    8.2536    2.0605 C.ar      1 <0>        -0.1071
      8 C8          1.4450    8.4219    1.3207 C.ar      1 <0>        -0.1819
      9 C9          0.2137    8.4823    1.9613 C.ar      1 <0>         0.0687
     10 N1         -0.9550    8.6569    1.2165 N.pl3     1 <0>        -0.8099
     11 S1         -1.0963    7.9583   -0.2782 S.o2      1 <0>         2.7643
     12 O1          0.0336    8.3777   -1.0310 O.2       1 <0>        -0.9157
     13 O2         -2.4295    8.1916   -0.7112 O.2       1 <0>        -0.9116
     14 C10        -0.9360    6.2176   -0.0570 C.ar      1 <0>        -0.7768
     15 C11        -2.0584    5.4464    0.1835 C.ar      1 <0>        -0.0089
     16 C12        -1.9361    4.0818    0.3574 C.ar      1 <0>        -0.1532
     17 C13        -0.6844    3.4841    0.2904 C.ar      1 <0>         0.1176
     18 C14         0.4415    4.2621    0.0544 C.ar      1 <0>        -0.1867
     19 C15         0.3118    5.6255   -0.1247 C.ar      1 <0>        -0.0055
     20 N2         -0.5571    2.1018    0.4661 N.am      1 <0>        -0.3340
     21 C16        -1.5171    1.2733    0.0095 C.2       1 <0>         0.3017
     22 O3         -2.5314    1.7290   -0.4750 O.2       1 <0>        -0.3456
     23 C17        -1.3331   -0.2193    0.1068 C.3       1 <0>        -0.2407
     24 H1         -0.6324    6.9755    5.5393 H         1 <0>         0.0757
     25 H2         -2.3878    7.1573    5.3071 H         1 <0>         0.0755
     26 H3         -1.4165    6.2805    4.1004 H         1 <0>         0.0786
     27 H4         -1.9776    8.5610    3.3047 H         1 <0>         0.0893
     28 H5         -0.4056    9.4535    5.7641 H         1 <0>         0.0770
     29 H6         -1.0281   10.5239    4.4854 H         1 <0>         0.0788
     30 H7         -2.1609    9.6353    5.5320 H         1 <0>         0.0755
     31 H8          1.2532    8.0972    5.1517 H         1 <0>         0.1337
     32 H9          3.4322    7.9991    4.0125 H         1 <0>         0.1299
     33 H10         3.5566    8.2099    1.5634 H         1 <0>         0.1344
     34 H11         1.5001    8.5099    0.2457 H         1 <0>         0.1813
     35 H12        -1.6838    9.1873    1.5748 H         1 <0>         0.2552
     36 H13        -3.0316    5.9118    0.2351 H         1 <0>         0.1534
     37 H14        -2.8131    3.4800    0.5448 H         1 <0>         0.1714
     38 H15         1.4169    3.8009    0.0062 H         1 <0>         0.1358
     39 H16         1.1864    6.2304   -0.3131 H         1 <0>         0.1520
     40 H17         0.2220    1.7398    0.9164 H         1 <0>         0.2355
     41 H18        -2.2086   -0.7209   -0.3056 H         1 <0>         0.1222
     42 H19        -0.4471   -0.5135   -0.4559 H         1 <0>         0.0989
     43 H20        -1.2105   -0.5029    1.1520 H         1 <0>         0.0963
@<TRIPOS>BOND
     1    1    2 1
     2    1   24 1
     3    1   25 1
     4    1   26 1
     5    2    3 1
     6    2    4 1
     7    2   27 1
     8    3   28 1
     9    3   29 1
    10    3   30 1
    11    4    9 ar
    12    4    5 ar
    13    5    6 ar
    14    5   31 1
    15    6    7 ar
    16    6   32 1
    17    7    8 ar
    18    7   33 1
    19    8    9 ar
    20    8   34 1
    21    9   10 1
    22   10   11 1
    23   10   35 1
    24   11   12 2
    25   11   13 2
    26   11   14 1
    27   14   19 ar
    28   14   15 ar
    29   15   16 ar
    30   15   36 1
    31   16   17 ar
    32   16   37 1
    33   17   18 ar
    34   17   20 1
    35   18   19 ar
    36   18   38 1
    37   19   39 1
    38   20   21 am
    39   20   40 1
    40   21   22 2
    41   21   23 1
    42   23   41 1
    43   23   42 1
    44   23   43 1
@<TRIPOS>MOLECULE
ZINC00184122
   42    43     0     0     0
SMALL
USER_CHARGES

@<TRIPOS>ATOM
      1 C1         -6.0099   -1.0291   -1.0539 C.3       1 <0>        -0.1824
      2 C2         -4.7206   -0.2589   -0.9299 C.ar      1 <0>        -0.0463
      3 C3         -3.6234   -0.8454   -0.3238 C.ar      1 <0>        -0.1329
      4 C4         -2.4386   -0.1480   -0.2122 C.ar      1 <0>        -0.1058
      5 C5         -2.3514    1.1566   -0.7015 C.ar      1 <0>        -0.1367
      6 C6         -3.4619    1.7423   -1.3112 C.ar      1 <0>        -0.0581
      7 C7         -4.6392    1.0315   -1.4220 C.ar      1 <0>        -0.0848
      8 C8         -5.8393    1.6623   -2.0800 C.3       1 <0>        -0.1771
      9 C9         -1.0867    1.9120   -0.5799 C.2       1 <0>         0.3522
     10 O1         -1.0122    3.0461   -1.0114 O.2       1 <0>        -0.3502
     11 N1         -0.0162    1.3436    0.0094 N.am      1 <0>        -0.3285
     12 C10         1.2074    2.0201    0.0385 C.ar      1 <0>         0.1214
     13 C11         2.3975    1.3104   -0.0577 C.ar      1 <0>        -0.1912
     14 C12         3.6040    1.9822   -0.0350 C.ar      1 <0>         0.0118
     15 C13         3.6283    3.3587    0.0954 C.ar      1 <0>        -0.7810
     16 C14         2.4454    4.0676    0.1976 C.ar      1 <0>        -0.0154
     17 C15         1.2354    3.4025    0.1693 C.ar      1 <0>        -0.1581
     18 S1          5.1700    4.2112    0.1307 S.o2      1 <0>         2.7488
     19 O2          6.1110    3.3761   -0.5299 O.2       1 <0>        -0.8837
     20 O3          4.9072    5.5432   -0.2887 O.2       1 <0>        -0.9114
     21 N2          5.6448    4.2987    1.7148 N.am      1 <0>        -0.8300
     22 C16         5.9414    3.1722    2.3926 C.2       1 <0>         0.3250
     23 O4          5.8605    2.0943    1.8425 O.2       1 <0>        -0.3312
     24 C17         6.3735    3.2518    3.8341 C.3       1 <0>        -0.2406
     25 H1         -6.0144   -1.5811   -1.9938 H         1 <0>         0.0923
     26 H2         -6.0973   -1.7277   -0.2218 H         1 <0>         0.0839
     27 H3         -6.8506   -0.3355   -1.0359 H         1 <0>         0.0898
     28 H4         -3.6936   -1.8531    0.0582 H         1 <0>         0.1353
     29 H5         -1.5817   -0.6085    0.2570 H         1 <0>         0.1227
     30 H6         -3.3996    2.7496   -1.6958 H         1 <0>         0.1584
     31 H7         -5.8220    1.4483   -3.1487 H         1 <0>         0.0907
     32 H8         -6.7502    1.2538   -1.6424 H         1 <0>         0.0860
     33 H9         -5.8136    2.7409   -1.9249 H         1 <0>         0.0868
     34 H10        -0.0955    0.4669    0.4169 H         1 <0>         0.2377
     35 H11         2.3792    0.2350   -0.1551 H         1 <0>         0.1376
     36 H12         4.5296    1.4315   -0.1149 H         1 <0>         0.1707
     37 H13         2.4679    5.1426    0.2993 H         1 <0>         0.1496
     38 H14         0.3119    3.9569    0.2484 H         1 <0>         0.1711
     39 H15         5.7096    5.1607    2.1548 H         1 <0>         0.2526
     40 H16         5.4974    3.1924    4.4799 H         1 <0>         0.1094
     41 H17         7.0466    2.4242    4.0579 H         1 <0>         0.1211
     42 H18         6.8891    4.1964    4.0072 H         1 <0>         0.0905
@<TRIPOS>BOND
     1    1    2 1
     2    1   25 1
     3    1   26 1
     4    1   27 1
     5    2    7 ar
     6    2    3 ar
     7    3    4 ar
     8    3   28 1
     9    4    5 ar
    10    4   29 1
    11    5    6 ar
    12    5    9 1
    13    6    7 ar
    14    6   30 1
    15    7    8 1
    16    8   31 1
    17    8   32 1
    18    8   33 1
    19    9   10 2
    20    9   11 am
    21   11   12 1
    22   11   34 1
    23   12   17 ar
    24   12   13 ar
    25   13   14 ar
    26   13   35 1
    27   14   15 ar
    28   14   36 1
    29   15   16 ar
    30   15   18 1
    31   16   17 ar
    32   16   37 1
    33   17   38 1
    34   18   19 2
    35   18   20 2
    36   18   21 1
    37   21   22 am
    38   21   39 1
    39   22   23 2
    40   22   24 1
    41   24   40 1
    42   24   41 1
    43   24   42 1
@<TRIPOS>MOLECULE
ZINC00184781
   38    40     0     0     0
SMALL
USER_CHARGES

@<TRIPOS>ATOM
      1 C1          1.8867    4.6093    2.2145 C.3       1 <0>        -0.0652
      2 O1          2.0978    3.4151    1.4586 O.3       1 <0>        -0.1972
      3 C2          1.0440    2.9457    0.7387 C.ar      1 <0>         0.0887
      4 C3         -0.1657    3.6198    0.7604 C.ar      1 <0>        -0.2453
      5 C4         -1.2402    3.1384    0.0250 C.ar      1 <0>         0.0915
      6 C5         -1.1000    1.9854   -0.7358 C.ar      1 <0>        -0.1508
      7 C6          0.1052    1.3095   -0.7532 C.ar      1 <0>        -0.1014
      8 C7          1.1797    1.7873   -0.0203 C.ar      1 <0>         0.0275
      9 O2          2.3675    1.1241   -0.0432 O.3       1 <0>        -0.2746
     10 N1         -2.4643    3.8194    0.0456 N.am      1 <0>        -0.3255
     11 C8         -3.6197    3.1319   -0.0488 C.2       1 <0>         0.2861
     12 O3         -3.6048    1.9190   -0.0552 O.2       1 <0>        -0.3298
     13 C9         -4.9299    3.8699   -0.1463 C.3       1 <0>        -0.0275
     14 N2         -6.0283    2.9049   -0.2380 N.am      1 <0>        -0.3064
     15 C10        -6.5167    2.4148   -1.3917 C.2       1 <0>         0.3681
     16 O4         -6.1225    2.6974   -2.5051 O.2       1 <0>        -0.3014
     17 C11        -7.6112    1.4724   -1.0773 C.ar      1 <0>        -0.1278
     18 C12        -8.4596    0.6855   -1.8396 C.ar      1 <0>        -0.0591
     19 C13        -9.4103   -0.1057   -1.2139 C.ar      1 <0>        -0.1137
     20 C14        -9.5174   -0.1147    0.1642 C.ar      1 <0>        -0.1133
     21 C15        -8.6756    0.6673    0.9396 C.ar      1 <0>        -0.0588
     22 C16        -7.7204    1.4632    0.3279 C.ar      1 <0>        -0.1268
     23 C17        -6.6853    2.3966    0.8201 C.2       1 <0>         0.3679
     24 O5         -6.4648    2.6603    1.9849 O.2       1 <0>        -0.2984
     25 H1          1.6069    5.4203    1.5421 H         1 <0>         0.0626
     26 H2          1.0878    4.4451    2.9377 H         1 <0>         0.0706
     27 H3          2.8042    4.8735    2.7404 H         1 <0>         0.1104
     28 H4         -0.2729    4.5192    1.3486 H         1 <0>         0.1375
     29 H5         -1.9349    1.6142   -1.3115 H         1 <0>         0.1644
     30 H6          0.2110    0.4104   -1.3421 H         1 <0>         0.1497
     31 H7          2.9679    1.4166   -0.7424 H         1 <0>         0.2212
     32 H8         -2.4804    4.7858    0.1278 H         1 <0>         0.2307
     33 H9         -5.0643    4.4903    0.7398 H         1 <0>         0.1294
     34 H10        -4.9259    4.5014   -1.0348 H         1 <0>         0.1309
     35 H11        -8.3806    0.6888   -2.9167 H         1 <0>         0.1507
     36 H12       -10.0722   -0.7191   -1.8072 H         1 <0>         0.1419
     37 H13       -10.2624   -0.7351    0.6401 H         1 <0>         0.1420
     38 H14        -8.7636    0.6560    2.0160 H         1 <0>         0.1512
@<TRIPOS>BOND
     1    1    2 1
     2    1   25 1
     3    1   26 1
     4    1   27 1
     5    2    3 1
     6    3    8 ar
     7    3    4 ar
     8    4    5 ar
     9    4   28 1
    10    5    6 ar
    11    5   10 1
    12    6    7 ar
    13    6   29 1
    14    7    8 ar
    15    7   30 1
    16    8    9 1
    17    9   31 1
    18   10   11 am
    19   10   32 1
    20   11   12 2
    21   11   13 1
    22   13   14 1
    23   13   33 1
    24   13   34 1
    25   14   23 am
    26   14   15 am
    27   15   16 2
    28   15   17 1
    29   17   22 ar
    30   17   18 ar
    31   18   19 ar
    32   18   35 1
    33   19   20 ar
    34   19   36 1
    35   20   21 ar
    36   20   37 1
    37   21   22 ar
    38   21   38 1
    39   22   23 1
    40   23   24 2
@<TRIPOS>MOLECULE
ZINC00188976
   46    48     0     0     0
SMALL
USER_CHARGES

@<TRIPOS>ATOM
      1 C1         -1.2183    1.7459   -0.0417 C.ar      1 <0>        -0.0878
      2 C2         -0.0125    1.0717   -0.0431 C.ar      1 <0>        -0.1473
      3 C3          1.1786    1.7830   -0.0387 C.ar      1 <0>         0.0905
      4 C4          1.1554    3.1701   -0.0270 C.ar      1 <0>        -0.2244
      5 C5         -0.0530    3.8395   -0.0198 C.ar      1 <0>        -0.0865
      6 C6         -1.2387    3.1283   -0.0247 C.ar      1 <0>        -0.1060
      7 C7         -2.5555    3.8611   -0.0173 C.3       1 <0>        -0.0661
      8 C8         -3.3507    3.4684    1.2294 C.3       1 <0>        -0.1510
      9 C9         -4.6876    4.2124    1.2369 C.3       1 <0>        -0.1591
     10 C10        -5.4851    3.8407   -0.0148 C.3       1 <0>        -0.1590
     11 C11        -4.6899    4.2334   -1.2615 C.3       1 <0>        -0.1591
     12 C12        -3.3530    3.4894   -1.2690 C.3       1 <0>        -0.1511
     13 O1          2.3661    1.1222   -0.0463 O.3       1 <0>        -0.1766
     14 C13         3.5521    1.9192   -0.0411 C.3       1 <0>        -0.0305
     15 C14         4.7615    1.0202   -0.0508 C.2       1 <0>         0.3033
     16 O2          4.6215   -0.1847   -0.0611 O.2       1 <0>        -0.2945
     17 N1          5.9987    1.5549   -0.0480 N.am      1 <0>        -0.3221
     18 C15         7.1259    0.7188    0.0424 C.2       1 <0>        -0.0984
     19 C16         8.0000    0.8524    1.0676 C.2       1 <0>         0.0076
     20 N2          9.0910    0.0238    1.1400 N.am      1 <0>        -0.2944
     21 H1          9.7335    0.1163    1.9007 H         1 <0>         0.2758
     22 C17         9.3048   -0.9119    0.1975 C.2       1 <0>         0.3967
     23 O3         10.2810   -1.6324    0.2802 O.2       1 <0>        -0.3728
     24 N3          8.4554   -1.0636   -0.8352 N.am      1 <0>        -0.3365
     25 H2          8.6321   -1.7652   -1.5256 H         1 <0>         0.2838
     26 C18         7.3674   -0.2747   -0.9440 C.2       1 <0>         0.3418
     27 O4          6.5994   -0.4123   -1.8790 O.2       1 <0>        -0.3097
     28 H3         -2.1458    1.1926   -0.0500 H         1 <0>         0.1379
     29 H4          0.0029   -0.0081   -0.0522 H         1 <0>         0.1493
     30 H5          2.0813    3.7261   -0.0239 H         1 <0>         0.1264
     31 H6         -0.0716    4.9193   -0.0107 H         1 <0>         0.1300
     32 H7         -2.3732    4.9357   -0.0085 H         1 <0>         0.0937
     33 H8         -3.5330    2.3938    1.2205 H         1 <0>         0.0836
     34 H9         -2.7825    3.7332    2.1211 H         1 <0>         0.0836
     35 H10        -4.5053    5.2870    1.2458 H         1 <0>         0.0803
     36 H11        -5.2541    3.9327    2.1251 H         1 <0>         0.0800
     37 H12        -6.4376    4.3708   -0.0094 H         1 <0>         0.0786
     38 H13        -5.6674    2.7661   -0.0236 H         1 <0>         0.0814
     39 H14        -4.5077    5.3081   -1.2526 H         1 <0>         0.0803
     40 H15        -5.2581    3.9686   -2.1532 H         1 <0>         0.0804
     41 H16        -2.7865    3.7692   -2.1572 H         1 <0>         0.0846
     42 H17        -3.5353    2.4148   -1.2779 H         1 <0>         0.0838
     43 H18         3.5657    2.5561   -0.9256 H         1 <0>         0.0967
     44 H19         3.5684    2.5406    0.8543 H         1 <0>         0.0892
     45 H20         6.1116    2.5164   -0.1083 H         1 <0>         0.2296
     46 H21         7.8374    1.6041    1.8259 H         1 <0>         0.1644
@<TRIPOS>BOND
     1    1    6 ar
     2    1    2 ar
     3    1   28 1
     4    2    3 ar
     5    2   29 1
     6    3    4 ar
     7    3   13 1
     8    4    5 ar
     9    4   30 1
    10    5    6 ar
    11    5   31 1
    12    6    7 1
    13    7   12 1
    14    7    8 1
    15    7   32 1
    16    8    9 1
    17    8   33 1
    18    8   34 1
    19    9   10 1
    20    9   35 1
    21    9   36 1
    22   10   11 1
    23   10   37 1
    24   10   38 1
    25   11   12 1
    26   11   39 1
    27   11   40 1
    28   12   41 1
    29   12   42 1
    30   13   14 1
    31   14   15 1
    32   14   43 1
    33   14   44 1
    34   15   16 2
    35   15   17 am
    36   17   18 1
    37   17   45 1
    38   18   26 1
    39   18   19 2
    40   19   20 1
    41   19   46 1
    42   20   21 1
    43   20   22 am
    44   22   23 2
    45   22   24 am
    46   24   25 1
    47   24   26 am
    48   26   27 2
@<TRIPOS>MOLECULE
ZINC00191061
   41    42     0     0     0
SMALL
USER_CHARGES

@<TRIPOS>ATOM
      1 C1          4.9100    5.9423    5.6979 C.3       1 <0>        -0.2119
      2 C2          3.5631    6.1934    5.0170 C.3       1 <0>        -0.0161
      3 O1          3.7055    7.2347    4.0488 O.3       1 <0>        -0.2114
      4 C3          2.5928    7.5834    3.3488 C.ar      1 <0>         0.1053
      5 C4          2.6610    8.5867    2.3936 C.ar      1 <0>        -0.1566
      6 C5          1.5315    8.9417    1.6826 C.ar      1 <0>        -0.0745
      7 C6          0.3274    8.2936    1.9240 C.ar      1 <0>        -0.0075
      8 C7          0.2588    7.2929    2.8842 C.ar      1 <0>        -0.0886
      9 C8          1.3907    6.9352    3.5903 C.ar      1 <0>        -0.2234
     10 N1         -0.8176    8.6527    1.2040 N.pl3     1 <0>        -0.8226
     11 S1         -0.9844    8.1818   -0.3749 S.o2      1 <0>         2.7618
     12 O2          0.2191    8.5463   -1.0367 O.2       1 <0>        -0.9115
     13 O3         -2.2588    8.6418   -0.8033 O.2       1 <0>        -0.9165
     14 C9         -1.0535    6.4212   -0.3890 C.ar      1 <0>        -0.7762
     15 C10        -2.2780    5.7788   -0.3816 C.ar      1 <0>        -0.0120
     16 C11        -2.3356    4.3989   -0.3926 C.ar      1 <0>        -0.1540
     17 C12        -1.1621    3.6566   -0.4111 C.ar      1 <0>         0.1140
     18 C13         0.0661    4.3047   -0.4126 C.ar      1 <0>        -0.1884
     19 C14         0.1168    5.6849   -0.4069 C.ar      1 <0>        -0.0055
     20 N2         -1.2170    2.2584   -0.4223 N.am      1 <0>        -0.3338
     21 C15        -2.2010    1.6281   -1.0938 C.2       1 <0>         0.3016
     22 O4         -3.0890    2.2707   -1.6130 O.2       1 <0>        -0.3460
     23 C16        -2.2013    0.1244   -1.1942 C.3       1 <0>        -0.2381
     24 H1          5.2430    6.8549    6.1922 H         1 <0>         0.0901
     25 H2          4.8014    5.1480    6.4364 H         1 <0>         0.0868
     26 H3          5.6453    5.6451    4.9501 H         1 <0>         0.0891
     27 H4          2.8278    6.4907    5.7648 H         1 <0>         0.0752
     28 H5          3.2301    5.2808    4.5228 H         1 <0>         0.0729
     29 H6          3.5976    9.0907    2.2059 H         1 <0>         0.1507
     30 H7          1.5848    9.7230    0.9388 H         1 <0>         0.1591
     31 H8         -0.6784    6.7916    3.0760 H         1 <0>         0.1373
     32 H9          1.3385    6.1538    4.3340 H         1 <0>         0.1375
     33 H10        -1.5135    9.1773    1.6298 H         1 <0>         0.2508
     34 H11        -3.1903    6.3567   -0.3676 H         1 <0>         0.1555
     35 H12        -3.2923    3.8977   -0.3873 H         1 <0>         0.1707
     36 H13         0.9805    3.7302   -0.4225 H         1 <0>         0.1350
     37 H14         1.0716    6.1896   -0.4122 H         1 <0>         0.1525
     38 H15        -0.5469    1.7429    0.0531 H         1 <0>         0.2346
     39 H16        -1.6526   -0.1803   -2.0854 H         1 <0>         0.1108
     40 H17        -1.7232   -0.2988   -0.3108 H         1 <0>         0.0834
     41 H18        -3.2282   -0.2352   -1.2591 H         1 <0>         0.1199
@<TRIPOS>BOND
     1    1    2 1
     2    1   24 1
     3    1   25 1
     4    1   26 1
     5    2    3 1
     6    2   27 1
     7    2   28 1
     8    3    4 1
     9    4    9 ar
    10    4    5 ar
    11    5    6 ar
    12    5   29 1
    13    6    7 ar
    14    6   30 1
    15    7    8 ar
    16    7   10 1
    17    8    9 ar
    18    8   31 1
    19    9   32 1
    20   10   11 1
    21   10   33 1
    22   11   12 2
    23   11   13 2
    24   11   14 1
    25   14   19 ar
    26   14   15 ar
    27   15   16 ar
    28   15   34 1
    29   16   17 ar
    30   16   35 1
    31   17   18 ar
    32   17   20 1
    33   18   19 ar
    34   18   36 1
    35   19   37 1
    36   20   21 am
    37   20   38 1
    38   21   22 2
    39   21   23 1
    40   23   39 1
    41   23   40 1
    42   23   41 1
@<TRIPOS>MOLECULE
ZINC00192823
   44    45     0     0     0
SMALL
USER_CHARGES

@<TRIPOS>ATOM
      1 C1          0.9233    1.6137   -0.0282 C.3       1 <0>        -0.2378
      2 C2         -0.4778    1.0308   -0.2234 C.3       1 <0>        -0.0131
      3 N1         -0.3877   -0.4262   -0.3470 N.pl3     1 <0>        -0.8359
      4 C3         -0.3597   -1.2630    0.8551 C.3       1 <0>        -0.0013
      5 C4         -1.7917   -1.5379    1.3186 C.3       1 <0>        -0.2317
      6 S1         -0.3174   -1.1272   -1.8457 S.o2      1 <0>         2.7616
      7 O1         -0.7919   -2.4580   -1.6943 O.2       1 <0>        -0.9054
      8 O2         -0.9078   -0.2064   -2.7528 O.2       1 <0>        -0.9153
      9 C5          1.3846   -1.2464   -2.2857 C.ar      1 <0>        -0.7670
     10 C6          1.9942   -0.2114   -2.9728 C.ar      1 <0>        -0.0062
     11 C7          3.3316   -0.2946   -3.3171 C.ar      1 <0>        -0.1585
     12 C8          4.0636   -1.4166   -2.9869 C.ar      1 <0>        -0.0560
     13 C9          3.4534   -2.4665   -2.2989 C.ar      1 <0>        -0.1519
     14 C10         2.1049   -2.3737   -1.9495 C.ar      1 <0>         0.0327
     15 C11         4.2314   -3.6717   -1.9423 C.2       1 <0>         0.3460
     16 O3          3.6972   -4.5848   -1.3435 O.2       1 <0>        -0.3396
     17 N2          5.5330   -3.7583   -2.2811 N.am      1 <0>        -0.3253
     18 C12         6.2971   -4.8468   -1.8488 C.ar      1 <0>         0.0765
     19 C13         7.3177   -5.3426   -2.6509 C.ar      1 <0>        -0.1719
     20 C14         8.0727   -6.4173   -2.2236 C.ar      1 <0>        -0.0972
     21 C15         7.8154   -7.0024   -0.9981 C.ar      1 <0>        -0.1698
     22 C16         6.7977   -6.5112   -0.1927 C.ar      1 <0>         0.0896
     23 C17         6.0408   -5.4296   -0.6158 C.ar      1 <0>        -0.1543
     24 O4          6.5465   -7.0869    1.0124 O.3       1 <0>        -0.2860
     25 H1          1.3665    1.1989    0.8771 H         1 <0>         0.0809
     26 H2          1.5453    1.3597   -0.8865 H         1 <0>         0.0728
     27 H3          0.8562    2.6977    0.0638 H         1 <0>         0.0842
     28 H4         -0.9210    1.4456   -1.1287 H         1 <0>         0.1147
     29 H5         -1.0998    1.2848    0.6350 H         1 <0>         0.0961
     30 H6          0.1365   -2.2069    0.6293 H         1 <0>         0.0983
     31 H7          0.1849   -0.7460    1.6451 H         1 <0>         0.0856
     32 H8         -1.7709   -2.1605    2.2130 H         1 <0>         0.0829
     33 H9         -2.2880   -0.5940    1.5443 H         1 <0>         0.0754
     34 H10        -2.3364   -2.0549    0.5285 H         1 <0>         0.0962
     35 H11         1.4246    0.6671   -3.2376 H         1 <0>         0.1537
     36 H12         3.8025    0.5186   -3.8494 H         1 <0>         0.1408
     37 H13         5.1063   -1.4823   -3.2604 H         1 <0>         0.1277
     38 H14         1.6269   -3.1825   -1.4168 H         1 <0>         0.1764
     39 H15         5.9397   -3.0655   -2.8247 H         1 <0>         0.2325
     40 H16         7.5210   -4.8870   -3.6088 H         1 <0>         0.1300
     41 H17         8.8658   -6.8011   -2.8482 H         1 <0>         0.1347
     42 H18         8.4074   -7.8427   -0.6667 H         1 <0>         0.1404
     43 H19         5.2511   -5.0434    0.0115 H         1 <0>         0.1681
     44 H20         7.0449   -6.6995    1.7449 H         1 <0>         0.2262
@<TRIPOS>BOND
     1    1    2 1
     2    1   25 1
     3    1   26 1
     4    1   27 1
     5    2    3 1
     6    2   28 1
     7    2   29 1
     8    3    4 1
     9    3    6 1
    10    4    5 1
    11    4   30 1
    12    4   31 1
    13    5   32 1
    14    5   33 1
    15    5   34 1
    16    6    7 2
    17    6    8 2
    18    6    9 1
    19    9   14 ar
    20    9   10 ar
    21   10   11 ar
    22   10   35 1
    23   11   12 ar
    24   11   36 1
    25   12   13 ar
    26   12   37 1
    27   13   14 ar
    28   13   15 1
    29   14   38 1
    30   15   16 2
    31   15   17 am
    32   17   18 1
    33   17   39 1
    34   18   23 ar
    35   18   19 ar
    36   19   20 ar
    37   19   40 1
    38   20   21 ar
    39   20   41 1
    40   21   22 ar
    41   21   42 1
    42   22   23 ar
    43   22   24 1
    44   23   43 1
    45   24   44 1
@<TRIPOS>MOLECULE
ZINC00192916
   36    38     0     0     0
SMALL
USER_CHARGES

@<TRIPOS>ATOM
      1 C1         -2.3744  -12.3316   -0.0368 C.3       1 <0>        -0.0509
      2 O1         -1.9825  -10.9335   -0.0339 O.3       1 <0>        -0.2667
      3 C2         -2.9729  -10.0208   -0.0201 C.2       1 <0>         0.3444
      4 O2         -4.1321  -10.3827   -0.0107 O.2       1 <0>        -0.3509
      5 C3         -2.6487   -8.5775   -0.0163 C.ar      1 <0>        -0.0835
      6 C4         -3.6752   -7.6315   -0.0020 C.ar      1 <0>        -0.0763
      7 C5         -3.3730   -6.2870    0.0019 C.ar      1 <0>        -0.0775
      8 C6         -2.0406   -5.8710   -0.0084 C.ar      1 <0>        -0.1018
      9 C7         -1.0143   -6.8168   -0.0281 C.ar      1 <0>        -0.1201
     10 C8         -1.3161   -8.1614   -0.0267 C.ar      1 <0>        -0.0868
     11 C9         -1.7163   -4.4272   -0.0046 C.2       1 <0>         0.3454
     12 O3         -2.6099   -3.6037    0.0074 O.2       1 <0>        -0.3243
     13 N1         -0.4298   -4.0255   -0.0146 N.am      1 <0>        -0.2664
     14 C10        -0.1264   -2.6748   -0.0111 C.2       1 <0>        -0.0113
     15 N2          1.0518   -2.0954   -0.0192 N.2       1 <0>        -0.2574
     16 C11         1.2006   -0.7531   -0.0134 C.ar      1 <0>         0.0499
     17 C12         2.4033   -0.0093   -0.0214 C.ar      1 <0>        -0.1746
     18 C13         2.3779    1.3667   -0.0142 C.ar      1 <0>         0.1251
     19 C14         1.1747    2.0692    0.0020 C.ar      1 <0>        -0.1946
     20 C15        -0.0165    1.3686    0.0096 C.ar      1 <0>        -0.0312
     21 C16         0.0021   -0.0041    0.0020 C.ar      1 <0>        -0.3353
     22 S1         -1.2387   -1.2761    0.0070 S.3       1 <0>         0.3632
     23 N3          3.5849    2.0747   -0.0228 N.pl3     1 <0>        -0.4231
     24 H1         -2.9587  -12.5469    0.8578 H         1 <0>         0.0850
     25 H2         -2.9758  -12.5385   -0.9221 H         1 <0>         0.0850
     26 H3         -1.4830  -12.9588   -0.0483 H         1 <0>         0.1057
     27 H4         -4.7061   -7.9533    0.0063 H         1 <0>         0.1654
     28 H5         -4.1671   -5.5551    0.0134 H         1 <0>         0.1666
     29 H6          0.0166   -6.4948   -0.0406 H         1 <0>         0.1335
     30 H7         -0.5219   -8.8932   -0.0374 H         1 <0>         0.1558
     31 H8          0.2835   -4.6828   -0.0242 H         1 <0>         0.2538
     32 H9          3.3514   -0.5264   -0.0336 H         1 <0>         0.1411
     33 H10         1.1729    3.1492    0.0077 H         1 <0>         0.1355
     34 H11        -0.9576    1.8984    0.0169 H         1 <0>         0.1368
     35 H12         4.4282    1.5955   -0.0337 H         1 <0>         0.2206
     36 H13         3.5783    3.0446   -0.0178 H         1 <0>         0.2198
@<TRIPOS>BOND
     1    1    2 1
     2    1   24 1
     3    1   25 1
     4    1   26 1
     5    2    3 1
     6    3    4 2
     7    3    5 1
     8    5   10 ar
     9    5    6 ar
    10    6    7 ar
    11    6   27 1
    12    7    8 ar
    13    7   28 1
    14    8    9 ar
    15    8   11 1
    16    9   10 ar
    17    9   29 1
    18   10   30 1
    19   11   12 2
    20   11   13 am
    21   13   14 1
    22   13   31 1
    23   14   22 1
    24   14   15 2
    25   15   16 1
    26   16   21 ar
    27   16   17 ar
    28   17   18 ar
    29   17   32 1
    30   18   19 ar
    31   18   23 1
    32   19   20 ar
    33   19   33 1
    34   20   21 ar
    35   20   34 1
    36   21   22 1
    37   23   35 1
    38   23   36 1
@<TRIPOS>MOLECULE
ZINC00195959
   37    39     0     0     0
SMALL
USER_CHARGES

@<TRIPOS>ATOM
      1 C1         10.5239    9.5112   -0.0423 C.3       1 <0>        -0.1707
      2 C2          9.0180    9.5694   -0.0291 C.2       1 <0>         0.0756
      3 C3          8.3685   10.8114   -0.0168 C.2       1 <0>        -0.2571
      4 C4          7.0123   10.8507   -0.0051 C.2       1 <0>         0.1052
      5 N1          6.3173    9.6799   -0.0054 N.pl3     1 <0>        -0.1059
      6 C5          6.9822    8.4836   -0.0171 C.2       1 <0>         0.1110
      7 N2          8.3218    8.4566   -0.0287 N.2       1 <0>        -0.1502
      8 N3          6.0703    7.5223   -0.0087 N.2       1 <0>        -0.2285
      9 C6          4.8484    8.0597   -0.0009 C.2       1 <0>        -0.0408
     10 N4          4.9496    9.3760    0.0049 N.2       1 <0>        -0.0738
     11 C7          3.5785    7.2986    0.0067 C.2       1 <0>         0.4088
     12 O1          2.5159    7.8893    0.0192 O.2       1 <0>        -0.2883
     13 N5          3.6003    5.9511   -0.0003 N.am      1 <0>        -0.3162
     14 N6          2.3986    5.2309    0.0068 N.2       1 <0>         0.0244
     15 C8          2.4197    3.9328    0.0001 C.2       1 <0>        -0.1105
     16 C9          1.1557    3.1753    0.0076 C.ar      1 <0>        -0.0762
     17 C10         1.1738    1.7786    0.0004 C.ar      1 <0>        -0.0948
     18 C11        -0.0126    1.0758    0.0080 C.ar      1 <0>        -0.1463
     19 C12        -1.2226    1.7488    0.0173 C.ar      1 <0>        -0.1016
     20 C13        -1.2539    3.1304    0.0299 C.ar      1 <0>        -0.1631
     21 C14        -0.0715    3.8522    0.0225 C.ar      1 <0>         0.1126
     22 O2         -0.1014    5.2099    0.0301 O.3       1 <0>        -0.2659
     23 C15         6.2858   12.1710    0.0076 C.3       1 <0>        -0.1864
     24 H1         10.8781    9.5023   -1.0731 H         1 <0>         0.1060
     25 H2         10.9257   10.3839    0.4725 H         1 <0>         0.0922
     26 H3         10.8569    8.6053    0.4641 H         1 <0>         0.1128
     27 H4          8.9413   11.7270   -0.0167 H         1 <0>         0.1644
     28 H5          4.4481    5.4798   -0.0103 H         1 <0>         0.2289
     29 H6          3.3636    3.4081   -0.0110 H         1 <0>         0.1199
     30 H7          2.1155    1.2499   -0.0114 H         1 <0>         0.1328
     31 H8          0.0021   -0.0041    0.0020 H         1 <0>         0.1331
     32 H9         -2.1472    1.1907    0.0191 H         1 <0>         0.1328
     33 H10        -2.2016    3.6482    0.0414 H         1 <0>         0.1441
     34 H11        -0.1181    5.6079   -0.8511 H         1 <0>         0.2405
     35 H12         6.1190   12.4841    1.0382 H         1 <0>         0.1114
     36 H13         6.8862   12.9210   -0.5073 H         1 <0>         0.0986
     37 H14         5.3268   12.0629   -0.4990 H         1 <0>         0.1212
@<TRIPOS>BOND
     1    1    2 1
     2    1   24 1
     3    1   25 1
     4    1   26 1
     5    2    7 2
     6    2    3 1
     7    3    4 2
     8    3   27 1
     9    4    5 1
    10    4   23 1
    11    5   10 1
    12    5    6 1
    13    6    7 1
    14    6    8 2
    15    8    9 1
    16    9   10 2
    17    9   11 1
    18   11   12 2
    19   11   13 am
    20   13   14 1
    21   13   28 1
    22   14   15 2
    23   15   16 1
    24   15   29 1
    25   16   21 ar
    26   16   17 ar
    27   17   18 ar
    28   17   30 1
    29   18   19 ar
    30   18   31 1
    31   19   20 ar
    32   19   32 1
    33   20   21 ar
    34   20   33 1
    35   21   22 1
    36   22   34 1
    37   23   35 1
    38   23   36 1
    39   23   37 1
@<TRIPOS>MOLECULE
ZINC00199882
   44    45     0     0     0
SMALL
USER_CHARGES

@<TRIPOS>ATOM
      1 C1          1.4573    1.6131    0.0265 C.3       1 <0>        -0.2040
      2 C2          0.0206    1.0870    0.0262 C.3       1 <0>        -0.0814
      3 C3         -0.7093    1.5977   -1.2177 C.3       1 <0>        -0.2040
      4 C4         -0.6925    1.5728    1.2618 C.ar      1 <0>        -0.0500
      5 C5         -0.8266    2.9313    1.4900 C.ar      1 <0>        -0.1288
      6 C6         -1.4826    3.3836    2.6153 C.ar      1 <0>        -0.1050
      7 C7         -2.0031    2.4657    3.5330 C.ar      1 <0>        -0.0831
      8 C8         -1.8585    1.0947    3.2982 C.ar      1 <0>        -0.0949
      9 C9         -1.2048    0.6581    2.1654 C.ar      1 <0>        -0.1296
     10 C10        -2.6991    2.9401    4.7401 C.2       1 <0>        -0.0117
     11 C11        -2.8366    4.2628    4.9631 C.2       1 <0>        -0.2533
     12 C12        -3.5287    4.7346    6.1635 C.2       1 <0>         0.3448
     13 O1         -3.9802    3.9330    6.9604 O.2       1 <0>        -0.3581
     14 N1         -3.6661    6.0567    6.3864 N.am      1 <0>        -0.3270
     15 C13        -4.4098    6.5075    7.4812 C.ar      1 <0>         0.1216
     16 C14        -5.1597    7.6725    7.3810 C.ar      1 <0>        -0.1898
     17 C15        -5.8973    8.1122    8.4626 C.ar      1 <0>        -0.0094
     18 C16        -5.8809    7.4003    9.6480 C.ar      1 <0>        -0.7829
     19 C17        -5.1313    6.2429    9.7528 C.ar      1 <0>        -0.0106
     20 C18        -4.3959    5.7946    8.6732 C.ar      1 <0>        -0.1541
     21 S1         -6.8177    7.9687   11.0278 S.o2      1 <0>         2.7635
     22 O2         -7.8635    8.7756   10.5040 O.2       1 <0>        -0.9201
     23 O3         -7.0679    6.8331   11.8445 O.2       1 <0>        -0.9170
     24 N2         -5.8371    8.9751   11.9042 N.pl3     1 <0>        -0.9320
     25 H1          1.4451    2.7030    0.0341 H         1 <0>         0.0754
     26 H2          1.9773    1.2493    0.9127 H         1 <0>         0.0792
     27 H3          1.9730    1.2617   -0.8672 H         1 <0>         0.0769
     28 H4          0.0327   -0.0029    0.0186 H         1 <0>         0.0963
     29 H5         -1.7329    1.2229   -1.2179 H         1 <0>         0.0796
     30 H6         -0.7214    2.6876   -1.2101 H         1 <0>         0.0755
     31 H7         -0.1936    1.2463   -2.1114 H         1 <0>         0.0769
     32 H8         -0.4202    3.6389    0.7825 H         1 <0>         0.1349
     33 H9         -1.5900    4.4439    2.7900 H         1 <0>         0.1312
     34 H10        -2.2575    0.3798    4.0026 H         1 <0>         0.1372
     35 H11        -1.0927   -0.4004    1.9824 H         1 <0>         0.1354
     36 H12        -3.0997    2.2288    5.4472 H         1 <0>         0.1586
     37 H13        -2.4360    4.9741    4.2560 H         1 <0>         0.1320
     38 H14        -3.2490    6.6955    5.7873 H         1 <0>         0.2363
     39 H15        -5.1694    8.2313    6.4569 H         1 <0>         0.1367
     40 H16        -6.4841    9.0154    8.3839 H         1 <0>         0.1535
     41 H17        -5.1212    5.6889   10.6798 H         1 <0>         0.1567
     42 H18        -3.8109    4.8905    8.7555 H         1 <0>         0.1734
     43 H19        -4.9284    9.1441   11.6098 H         1 <0>         0.2288
     44 H20        -6.1714    9.3955   12.7119 H         1 <0>         0.2425
@<TRIPOS>BOND
     1    1    2 1
     2    1   25 1
     3    1   26 1
     4    1   27 1
     5    2    3 1
     6    2    4 1
     7    2   28 1
     8    3   29 1
     9    3   30 1
    10    3   31 1
    11    4    9 ar
    12    4    5 ar
    13    5    6 ar
    14    5   32 1
    15    6    7 ar
    16    6   33 1
    17    7    8 ar
    18    7   10 1
    19    8    9 ar
    20    8   34 1
    21    9   35 1
    22   10   11 2
    23   10   36 1
    24   11   12 1
    25   11   37 1
    26   12   13 2
    27   12   14 am
    28   14   15 1
    29   14   38 1
    30   15   20 ar
    31   15   16 ar
    32   16   17 ar
    33   16   39 1
    34   17   18 ar
    35   17   40 1
    36   18   19 ar
    37   18   21 1
    38   19   20 ar
    39   19   41 1
    40   20   42 1
    41   21   22 2
    42   21   23 2
    43   21   24 1
    44   24   43 1
    45   24   44 1
@<TRIPOS>MOLECULE
ZINC00200529
   40    41     0     0     0
SMALL
USER_CHARGES

@<TRIPOS>ATOM
      1 C1          0.0442    3.8765   -1.7651 C.3       1 <0>        -0.2122
      2 C2          0.4293    3.9823   -0.2882 C.3       1 <0>        -0.1773
      3 C3          0.7853    2.5939    0.2469 C.3       1 <0>         0.0360
      4 H1          1.5648    2.1537   -0.3751 H         1 <0>         0.1224
      5 C4          1.2894    2.7158    1.6863 C.3       1 <0>        -0.2277
      6 N1         -0.4042    1.7392    0.2168 N.am      1 <0>        -0.3835
      7 C5         -0.2701    0.3999    0.1465 C.2       1 <0>         0.3450
      8 O1          0.8382   -0.0989    0.1080 O.2       1 <0>        -0.3674
      9 C6         -1.4678   -0.4607    0.1162 C.ar      1 <0>        -0.1208
     10 C7         -2.7425    0.1110    0.1662 C.ar      1 <0>        -0.1053
     11 C8         -3.8579   -0.6942    0.1320 C.ar      1 <0>        -0.1386
     12 C9         -3.7178   -2.0774    0.0598 C.ar      1 <0>         0.0542
     13 C10        -2.4496   -2.6501    0.0156 C.ar      1 <0>        -0.1200
     14 C11        -1.3304   -1.8500    0.0432 C.ar      1 <0>        -0.0617
     15 N2         -4.8467   -2.8887    0.0313 N.pl3     1 <0>        -0.8256
     16 S1         -5.2882   -3.7410    1.3807 S.o2      1 <0>         2.7899
     17 O2         -6.4889   -4.4267    1.0532 O.2       1 <0>        -0.9059
     18 O3         -4.1233   -4.4179    1.8326 O.2       1 <0>        -0.8970
     19 C12        -5.7030   -2.5660    2.6265 C.2       1 <0>        -0.9577
     20 C13        -6.9186   -2.0657    2.9572 C.2       1 <0>        -0.0343
     21 C14        -7.0073   -1.1429    3.9824 C.2       1 <0>        -0.2109
     22 C15        -5.8761   -0.7654    4.6268 C.2       1 <0>        -0.2802
     23 S2         -4.6323   -1.7314    3.7859 S.3       1 <0>         0.4591
     24 H2          0.8836    3.4731   -2.3315 H         1 <0>         0.0814
     25 H3         -0.8160    3.2152   -1.8698 H         1 <0>         0.0733
     26 H4         -0.2095    4.8656   -2.1463 H         1 <0>         0.0740
     27 H5         -0.4102    4.3857    0.2782 H         1 <0>         0.0795
     28 H6          1.2894    4.6436   -0.1835 H         1 <0>         0.0955
     29 H7          0.5100    3.1559    2.3082 H         1 <0>         0.0712
     30 H8          1.5431    1.7266    2.0674 H         1 <0>         0.0964
     31 H9          2.1744    3.3517    1.7086 H         1 <0>         0.0803
     32 H10        -1.2883    2.1373    0.2435 H         1 <0>         0.2216
     33 H11        -2.8519    1.1837    0.2267 H         1 <0>         0.1285
     34 H12        -4.8431   -0.2529    0.1658 H         1 <0>         0.1386
     35 H13        -2.3441   -3.7235   -0.0407 H         1 <0>         0.1602
     36 H14        -0.3469   -2.2948    0.0082 H         1 <0>         0.1651
     37 H15        -5.3757   -2.9553   -0.7790 H         1 <0>         0.2562
     38 H16        -7.8046   -2.3837    2.4278 H         1 <0>         0.1566
     39 H17        -7.9637   -0.7290    4.2660 H         1 <0>         0.1493
     40 H18        -5.7584   -0.0650    5.4405 H         1 <0>         0.1915
@<TRIPOS>BOND
     1    1    2 1
     2    1   24 1
     3    1   25 1
     4    1   26 1
     5    2    3 1
     6    2   27 1
     7    2   28 1
     8    3    4 1
     9    3    5 1
    10    3    6 1
    11    5   29 1
    12    5   30 1
    13    5   31 1
    14    6    7 am
    15    6   32 1
    16    7    8 2
    17    7    9 1
    18    9   14 ar
    19    9   10 ar
    20   10   11 ar
    21   10   33 1
    22   11   12 ar
    23   11   34 1
    24   12   13 ar
    25   12   15 1
    26   13   14 ar
    27   13   35 1
    28   14   36 1
    29   15   16 1
    30   15   37 1
    31   16   17 2
    32   16   18 2
    33   16   19 1
    34   19   23 1
    35   19   20 2
    36   20   21 1
    37   20   38 1
    38   21   22 2
    39   21   39 1
    40   22   23 1
    41   22   40 1
@<TRIPOS>MOLECULE
ZINC00200589
   40    42     0     0     0
SMALL
USER_CHARGES

@<TRIPOS>ATOM
      1 C1         -0.6394    5.9316   -2.0165 C.3       1 <0>        -0.0669
      2 O1          0.5257    6.4028   -1.3363 O.3       1 <0>        -0.2006
      3 C2          1.2696    5.4778   -0.6726 C.ar      1 <0>         0.0705
      4 C3          0.8887    4.1479   -0.6816 C.ar      1 <0>        -0.1794
      5 C4          1.6514    3.2026    0.0030 C.ar      1 <0>         0.0330
      6 C5          2.8004    3.5996    0.6861 C.ar      1 <0>        -0.1382
      7 C6          3.1783    4.9270    0.6882 C.ar      1 <0>        -0.1174
      8 C7          2.4177    5.8683    0.0116 C.ar      1 <0>         0.0465
      9 O2          2.7939    7.1753    0.0158 O.3       1 <0>        -0.2771
     10 C8          1.2449    1.7772   -0.0003 C.2       1 <0>        -0.0277
     11 C9          2.0989    0.6884   -0.0143 C.2       1 <0>        -0.0516
     12 N1          1.3167   -0.4241   -0.0128 N.pl3     1 <0>        -0.0440
     13 C10         1.5872   -1.7691   -0.0226 C.2       1 <0>        -0.1497
     14 C11         0.5711   -2.6548   -0.0177 C.2       1 <0>        -0.0757
     15 N2         -0.7031   -2.2499   -0.0038 N.2       1 <0>        -0.1626
     16 C12        -1.0177   -0.9767    0.0065 C.2       1 <0>         0.0337
     17 C13         0.0021   -0.0041    0.0020 C.2       1 <0>        -0.0783
     18 N3         -0.0158    1.3169    0.0093 N.2       1 <0>        -0.1269
     19 N4          3.4915    0.7250   -0.0281 N.pl3     1 <0>        -0.1924
     20 C14         4.0536   -0.6322   -0.0409 C.3       1 <0>        -0.0889
     21 C15         5.5585   -0.5525   -0.0556 C.2       1 <0>         0.2959
     22 O3          6.1065    0.5243   -0.0554 O.2       1 <0>        -0.3353
     23 O4          6.2900   -1.6778   -0.0689 O.3       1 <0>        -0.2705
     24 C16         7.7339   -1.5253   -0.0826 C.3       1 <0>        -0.0507
     25 H1         -0.3494    5.1960   -2.7668 H         1 <0>         0.0677
     26 H2         -1.3177    5.4705   -1.2987 H         1 <0>         0.0738
     27 H3         -1.1396    6.7690   -2.5030 H         1 <0>         0.1085
     28 H4          0.0005    3.8430   -1.2150 H         1 <0>         0.1545
     29 H5          3.3949    2.8681    1.2132 H         1 <0>         0.1258
     30 H6          4.0685    5.2330    1.2176 H         1 <0>         0.1462
     31 H7          3.3830    7.4174   -0.7118 H         1 <0>         0.2247
     32 H8          2.6097   -2.1166   -0.0346 H         1 <0>         0.1733
     33 H9          0.7905   -3.7122   -0.0254 H         1 <0>         0.1770
     34 H10        -2.0545   -0.6747    0.0184 H         1 <0>         0.1913
     35 H11         3.8471    1.2562    0.7526 H         1 <0>         0.2041
     36 H12         3.7269   -1.1692    0.8496 H         1 <0>         0.0913
     37 H13         3.7090   -1.1598   -0.9303 H         1 <0>         0.1365
     38 H14         8.0324   -0.9714   -0.9727 H         1 <0>         0.0877
     39 H15         8.0502   -0.9808    0.8072 H         1 <0>         0.0844
     40 H16         8.2032   -2.5091   -0.0925 H         1 <0>         0.1077
@<TRIPOS>BOND
     1    1    2 1
     2    1   25 1
     3    1   26 1
     4    1   27 1
     5    2    3 1
     6    3    8 ar
     7    3    4 ar
     8    4    5 ar
     9    4   28 1
    10    5    6 ar
    11    5   10 1
    12    6    7 ar
    13    6   29 1
    14    7    8 ar
    15    7   30 1
    16    8    9 1
    17    9   31 1
    18   10   18 1
    19   10   11 2
    20   11   12 1
    21   11   19 1
    22   12   17 1
    23   12   13 1
    24   13   14 2
    25   13   32 1
    26   14   15 1
    27   14   33 1
    28   15   16 2
    29   16   17 1
    30   16   34 1
    31   17   18 2
    32   19   20 1
    33   19   35 1
    34   20   21 1
    35   20   36 1
    36   20   37 1
    37   21   22 2
    38   21   23 1
    39   23   24 1
    40   24   38 1
    41   24   39 1
    42   24   40 1
@<TRIPOS>MOLECULE
ZINC00200589
   41    43     0     0     0
SMALL
USER_CHARGES

@<TRIPOS>ATOM
      1 C1         -0.6394    5.9316   -2.0165 C.3       1 <0>        -0.0680
      2 O1          0.5257    6.4028   -1.3363 O.3       1 <0>        -0.1786
      3 C2          1.2696    5.4778   -0.6726 C.ar      1 <0>         0.0887
      4 C3          0.8887    4.1479   -0.6816 C.ar      1 <0>        -0.1961
      5 C4          1.6514    3.2026    0.0030 C.ar      1 <0>        -0.0482
      6 C5          2.8004    3.5996    0.6861 C.ar      1 <0>        -0.1052
      7 C6          3.1783    4.9270    0.6882 C.ar      1 <0>        -0.1086
      8 C7          2.4177    5.8683    0.0116 C.ar      1 <0>         0.0980
      9 O2          2.7939    7.1753    0.0158 O.3       1 <0>        -0.2648
     10 C8          1.2449    1.7772   -0.0003 C.2       1 <0>         0.0328
     11 C9          2.0989    0.6884   -0.0143 C.2       1 <0>         0.0094
     12 N1          1.3167   -0.4241   -0.0128 N.pl3     1 <0>         0.0049
     13 C10         1.5872   -1.7691   -0.0226 C.2       1 <0>        -0.1239
     14 C11         0.5711   -2.6548   -0.0177 C.2       1 <0>        -0.0385
     15 N2         -0.7031   -2.2499   -0.0038 N.2       1 <0>        -0.0751
     16 C12        -1.0177   -0.9767    0.0065 C.2       1 <0>        -0.0022
     17 C13         0.0021   -0.0041    0.0020 C.cat     1 <0>        -0.0156
     18 N3          3.4915    0.7250   -0.0281 N.pl3     1 <0>        -0.1752
     19 C14         4.0536   -0.6322   -0.0409 C.3       1 <0>        -0.0993
     20 C15         5.5585   -0.5525   -0.0556 C.2       1 <0>         0.3008
     21 O3          6.1065    0.5243   -0.0554 O.2       1 <0>        -0.3231
     22 O4          6.2900   -1.6778   -0.0689 O.3       1 <0>        -0.2622
     23 C16         7.7339   -1.5253   -0.0826 C.3       1 <0>        -0.0511
     24 H1         -0.3494    5.1960   -2.7668 H         1 <0>         0.0680
     25 H2         -1.3177    5.4705   -1.2987 H         1 <0>         0.0628
     26 H3         -1.1396    6.7690   -2.5030 H         1 <0>         0.1337
     27 H4          0.0005    3.8430   -1.2150 H         1 <0>         0.1352
     28 H5          3.3949    2.8681    1.2132 H         1 <0>         0.1311
     29 H6          4.0685    5.2330    1.2176 H         1 <0>         0.1703
     30 H7          3.3830    7.4174   -0.7118 H         1 <0>         0.2486
     31 H8          2.6097   -2.1166   -0.0346 H         1 <0>         0.2139
     32 H9          0.7905   -3.7122   -0.0254 H         1 <0>         0.2172
     33 H10        -2.0545   -0.6747    0.0184 H         1 <0>         0.2109
     34 H11         3.8471    1.2562    0.7526 H         1 <0>         0.2292
     35 H12         3.7269   -1.1692    0.8496 H         1 <0>         0.0956
     36 H13         3.7090   -1.1598   -0.9303 H         1 <0>         0.1377
     37 H14         8.0324   -0.9714   -0.9727 H         1 <0>         0.0957
     38 H15         8.0502   -0.9808    0.8072 H         1 <0>         0.0921
     39 H16         8.2032   -2.5091   -0.0925 H         1 <0>         0.1230
     40 N4         -0.0148    1.3162    0.0093 N.pl3     1 <0>        -0.0843
     41 H17        -0.8601    1.8990    0.0205 H         1 <0>         0.3202
@<TRIPOS>BOND
     1    1    2 1
     2    1   24 1
     3    1   25 1
     4    1   26 1
     5    2    3 1
     6    3    8 ar
     7    3    4 ar
     8    4    5 ar
     9    4   27 1
    10    5    6 ar
    11    5   10 1
    12    6    7 ar
    13    6   28 1
    14    7    8 ar
    15    7   29 1
    16    8    9 1
    17    9   30 1
    18   10   11 2
    19   10   40 1
    20   11   12 1
    21   11   18 1
    22   12   17 1
    23   12   13 1
    24   13   14 2
    25   13   31 1
    26   14   15 1
    27   14   32 1
    28   15   16 2
    29   16   17 1
    30   16   33 1
    31   17   40 2
    32   18   19 1
    33   18   34 1
    34   19   20 1
    35   19   35 1
    36   19   36 1
    37   20   21 2
    38   20   22 1
    39   22   23 1
    40   23   37 1
    41   23   38 1
    42   23   39 1
    43   40   41 1
@<TRIPOS>MOLECULE
ZINC00200590
   39    41     0     0     0
SMALL
USER_CHARGES

@<TRIPOS>ATOM
      1 C1          7.8960    5.6776   -4.7558 C.3       1 <0>        -0.2155
      2 C2          6.4974    5.5105   -4.1584 C.3       1 <0>        -0.0036
      3 O1          6.4443    4.2816   -3.3869 O.3       1 <0>        -0.2721
      4 C3          5.2779    3.9851   -2.7925 C.2       1 <0>         0.2979
      5 O2          4.3325    4.7279   -2.9129 O.2       1 <0>        -0.3382
      6 C4          5.1474    2.7258   -1.9751 C.3       1 <0>        -0.0891
      7 N1          3.7845    2.6316   -1.4350 N.pl3     1 <0>        -0.1925
      8 C5          3.6285    1.4763   -0.6722 C.2       1 <0>        -0.0549
      9 C6          2.4799    1.0693   -0.0164 C.2       1 <0>        -0.0254
     10 N2          2.7418   -0.0954    0.5970 N.2       1 <0>        -0.1263
     11 C7          3.9965   -0.4380    0.3653 C.2       1 <0>        -0.0780
     12 N3          4.5766    0.5330   -0.4256 N.pl3     1 <0>        -0.0437
     13 C8          5.8891    0.3925   -0.7995 C.2       1 <0>        -0.1500
     14 C9          6.5880   -0.6857   -0.3919 C.2       1 <0>        -0.0761
     15 N4          6.0279   -1.6274    0.3743 N.2       1 <0>        -0.1632
     16 C10         4.7774   -1.5425    0.7606 C.2       1 <0>         0.0339
     17 C11         1.1850    1.7902    0.0004 C.ar      1 <0>        -0.0066
     18 C12        -0.0126    1.0758    0.0080 C.ar      1 <0>        -0.0816
     19 C13        -1.2158    1.7499    0.0173 C.ar      1 <0>        -0.1566
     20 C14        -1.2355    3.1379    0.0313 C.ar      1 <0>         0.0754
     21 C15        -0.0452    3.8522    0.0233 C.ar      1 <0>        -0.1516
     22 C16         1.1615    3.1845    0.0081 C.ar      1 <0>        -0.0984
     23 O3         -2.4229    3.7990    0.0466 O.3       1 <0>        -0.2929
     24 H1          8.6314    5.7209   -3.9524 H         1 <0>         0.0864
     25 H2          8.1171    4.8309   -5.4056 H         1 <0>         0.0877
     26 H3          7.9359    6.6002   -5.3349 H         1 <0>         0.0933
     27 H4          5.7620    5.4672   -4.9618 H         1 <0>         0.0939
     28 H5          6.2763    6.3572   -3.5086 H         1 <0>         0.0905
     29 H6          5.8630    2.7504   -1.1532 H         1 <0>         0.0909
     30 H7          5.3487    1.8604   -2.6064 H         1 <0>         0.1365
     31 H8          3.5505    3.4535   -0.8985 H         1 <0>         0.2023
     32 H9          6.3603    1.1424   -1.4175 H         1 <0>         0.1731
     33 H10         7.6208   -0.7907   -0.6898 H         1 <0>         0.1765
     34 H11         4.3477   -2.3161    1.3798 H         1 <0>         0.1915
     35 H12         0.0021   -0.0041    0.0020 H         1 <0>         0.1495
     36 H13        -2.1437    1.1973    0.0187 H         1 <0>         0.1421
     37 H14        -0.0642    4.9320    0.0293 H         1 <0>         0.1418
     38 H15         2.0871    3.7409    0.0019 H         1 <0>         0.1252
     39 H16        -2.7753    3.9951   -0.8322 H         1 <0>         0.2278
@<TRIPOS>BOND
     1    1    2 1
     2    1   24 1
     3    1   25 1
     4    1   26 1
     5    2    3 1
     6    2   27 1
     7    2   28 1
     8    3    4 1
     9    4    5 2
    10    4    6 1
    11    6    7 1
    12    6   29 1
    13    6   30 1
    14    7    8 1
    15    7   31 1
    16    8   12 1
    17    8    9 2
    18    9   10 1
    19    9   17 1
    20   10   11 2
    21   11   16 1
    22   11   12 1
    23   12   13 1
    24   13   14 2
    25   13   32 1
    26   14   15 1
    27   14   33 1
    28   15   16 2
    29   16   34 1
    30   17   22 ar
    31   17   18 ar
    32   18   19 ar
    33   18   35 1
    34   19   20 ar
    35   19   36 1
    36   20   21 ar
    37   20   23 1
    38   21   22 ar
    39   21   37 1
    40   22   38 1
    41   23   39 1
@<TRIPOS>MOLECULE
ZINC00200590
   40    42     0     0     0
SMALL
USER_CHARGES

@<TRIPOS>ATOM
      1 C1          7.8960    5.6776   -4.7558 C.3       1 <0>        -0.2158
      2 C2          6.4974    5.5105   -4.1584 C.3       1 <0>        -0.0040
      3 O1          6.4443    4.2816   -3.3869 O.3       1 <0>        -0.2644
      4 C3          5.2779    3.9851   -2.7925 C.2       1 <0>         0.3028
      5 O2          4.3325    4.7279   -2.9129 O.2       1 <0>        -0.3265
      6 C4          5.1474    2.7258   -1.9751 C.3       1 <0>        -0.0999
      7 N1          3.7845    2.6316   -1.4350 N.pl3     1 <0>        -0.1754
      8 C5          3.6285    1.4763   -0.6722 C.2       1 <0>         0.0071
      9 C6          2.4799    1.0693   -0.0164 C.2       1 <0>         0.0340
     10 C7          3.9965   -0.4380    0.3653 C.cat     1 <0>        -0.0154
     11 N2          4.5766    0.5330   -0.4256 N.pl3     1 <0>         0.0054
     12 C8          5.8891    0.3925   -0.7995 C.2       1 <0>        -0.1243
     13 C9          6.5880   -0.6857   -0.3919 C.2       1 <0>        -0.0386
     14 N3          6.0279   -1.6274    0.3743 N.2       1 <0>        -0.0756
     15 C10         4.7774   -1.5425    0.7606 C.2       1 <0>        -0.0017
     16 C11         1.1850    1.7902    0.0004 C.ar      1 <0>        -0.0888
     17 C12        -0.0126    1.0758    0.0080 C.ar      1 <0>        -0.0872
     18 C13        -1.2158    1.7499    0.0173 C.ar      1 <0>        -0.1431
     19 C14        -1.2355    3.1379    0.0313 C.ar      1 <0>         0.1285
     20 C15        -0.0452    3.8522    0.0233 C.ar      1 <0>        -0.1405
     21 C16         1.1615    3.1845    0.0081 C.ar      1 <0>        -0.0668
     22 O3         -2.4229    3.7990    0.0466 O.3       1 <0>        -0.2800
     23 H1          8.6314    5.7209   -3.9524 H         1 <0>         0.0897
     24 H2          8.1171    4.8309   -5.4056 H         1 <0>         0.0912
     25 H3          7.9359    6.6002   -5.3349 H         1 <0>         0.1072
     26 H4          5.7620    5.4672   -4.9618 H         1 <0>         0.1006
     27 H5          6.2763    6.3572   -3.5086 H         1 <0>         0.0970
     28 H6          5.8630    2.7504   -1.1532 H         1 <0>         0.0951
     29 H7          5.3487    1.8604   -2.6064 H         1 <0>         0.1377
     30 H8          3.5505    3.4535   -0.8985 H         1 <0>         0.2275
     31 H9          6.3603    1.1424   -1.4175 H         1 <0>         0.2139
     32 H10         7.6208   -0.7907   -0.6898 H         1 <0>         0.2169
     33 H11         4.3477   -2.3161    1.3798 H         1 <0>         0.2113
     34 H12         0.0021   -0.0041    0.0020 H         1 <0>         0.1307
     35 H13        -2.1437    1.1973    0.0187 H         1 <0>         0.1646
     36 H14        -0.0642    4.9320    0.0293 H         1 <0>         0.1668
     37 H15         2.0871    3.7409    0.0019 H         1 <0>         0.1313
     38 H16        -2.7753    3.9951   -0.8322 H         1 <0>         0.2523
     39 N4          2.7426   -0.0948    0.5963 N.pl3     1 <0>        -0.0845
     40 H17         2.0732   -0.6345    1.1574 H         1 <0>         0.3210
@<TRIPOS>BOND
     1    1    2 1
     2    1   23 1
     3    1   24 1
     4    1   25 1
     5    2    3 1
     6    2   26 1
     7    2   27 1
     8    3    4 1
     9    4    5 2
    10    4    6 1
    11    6    7 1
    12    6   28 1
    13    6   29 1
    14    7    8 1
    15    7   30 1
    16    8   11 1
    17    8    9 2
    18    9   16 1
    19    9   39 1
    20   10   15 1
    21   10   11 1
    22   10   39 2
    23   11   12 1
    24   12   13 2
    25   12   31 1
    26   13   14 1
    27   13   32 1
    28   14   15 2
    29   15   33 1
    30   16   21 ar
    31   16   17 ar
    32   17   18 ar
    33   17   34 1
    34   18   19 ar
    35   18   35 1
    36   19   20 ar
    37   19   22 1
    38   20   21 ar
    39   20   36 1
    40   21   37 1
    41   22   38 1
    42   39   40 1
@<TRIPOS>MOLECULE
ZINC00200627
   39    41     0     0     0
SMALL
USER_CHARGES

@<TRIPOS>ATOM
      1 C1          0.1538    4.0799    0.7861 C.3       1 <0>        -0.0624
      2 O1          1.1530    3.4464   -0.0153 O.3       1 <0>        -0.2119
      3 C2          1.1727    2.0869   -0.0168 C.ar      1 <0>         0.0812
      4 C3          2.1168    1.4080   -0.7731 C.ar      1 <0>        -0.1411
      5 C4          2.1377    0.0273   -0.7746 C.ar      1 <0>        -0.0890
      6 C5          1.2134   -0.6815   -0.0190 C.ar      1 <0>         0.0240
      7 C6          0.2686   -0.0014    0.7378 C.ar      1 <0>        -0.1222
      8 C7          0.2489    1.3793    0.7385 C.ar      1 <0>        -0.2053
      9 N1          1.2337   -2.0825   -0.0204 N.am      1 <0>        -0.3243
     10 C8          2.4048   -2.7393   -0.1368 C.2       1 <0>         0.3093
     11 O2          3.4485   -2.1215   -0.1440 O.2       1 <0>        -0.3569
     12 C9          2.4174   -4.2414   -0.2581 C.3       1 <0>        -0.2099
     13 C10         3.8620   -4.7314   -0.3760 C.3       1 <0>         0.0113
     14 N2          3.8743   -6.1916   -0.4938 N.am      1 <0>        -0.2990
     15 C11         3.8165   -6.7712   -1.7142 C.2       1 <0>         0.3919
     16 O3          3.7533   -6.0878   -2.7205 O.2       1 <0>        -0.3406
     17 C12         3.8299   -8.1669   -1.8039 C.2       1 <0>        -0.4368
     18 C13         3.9015   -8.9718   -0.6636 C.2       1 <0>         0.0757
     19 C14         3.9064  -10.3410   -0.9142 C.2       1 <0>        -0.2229
     20 C15         3.8445  -10.7953   -2.1872 C.2       1 <0>        -0.3077
     21 S1          3.7748   -9.3415   -3.1304 S.3       1 <0>         0.5360
     22 N3          3.9584   -8.2937    0.5652 N.am      1 <0>        -0.2913
     23 H1          4.0069   -8.8166    1.4162 H         1 <0>         0.2705
     24 C16         3.9485   -6.9535    0.6108 C.2       1 <0>         0.4056
     25 O4          4.0045   -6.4058    1.6950 O.2       1 <0>        -0.3818
     26 H2          0.2846    3.7878    1.8280 H         1 <0>         0.0678
     27 H3          0.2491    5.1621    0.6974 H         1 <0>         0.1071
     28 H4         -0.8347    3.7731    0.4441 H         1 <0>         0.0658
     29 H5          2.8386    1.9595   -1.3574 H         1 <0>         0.1480
     30 H6          2.8726   -0.5012   -1.3638 H         1 <0>         0.1646
     31 H7         -0.4508   -0.5521    1.3256 H         1 <0>         0.1289
     32 H8         -0.4857    1.9085    1.3273 H         1 <0>         0.1356
     33 H9          0.4049   -2.5796    0.0624 H         1 <0>         0.2308
     34 H10         1.9556   -4.6811    0.6259 H         1 <0>         0.1134
     35 H11         1.8592   -4.5390   -1.1457 H         1 <0>         0.1147
     36 H12         4.3238   -4.2917   -1.2600 H         1 <0>         0.1355
     37 H13         4.4202   -4.4338    0.5117 H         1 <0>         0.1374
     38 H14         3.9591  -11.0403   -0.0929 H         1 <0>         0.1499
     39 H15         3.8402  -11.8184   -2.5332 H         1 <0>         0.1981
@<TRIPOS>BOND
     1    1    2 1
     2    1   26 1
     3    1   27 1
     4    1   28 1
     5    2    3 1
     6    3    8 ar
     7    3    4 ar
     8    4    5 ar
     9    4   29 1
    10    5    6 ar
    11    5   30 1
    12    6    7 ar
    13    6    9 1
    14    7    8 ar
    15    7   31 1
    16    8   32 1
    17    9   10 am
    18    9   33 1
    19   10   11 2
    20   10   12 1
    21   12   13 1
    22   12   34 1
    23   12   35 1
    24   13   14 1
    25   13   36 1
    26   13   37 1
    27   14   24 am
    28   14   15 am
    29   15   16 2
    30   15   17 1
    31   17   21 1
    32   17   18 2
    33   18   19 1
    34   18   22 1
    35   19   20 2
    36   19   38 1
    37   20   21 1
    38   20   39 1
    39   22   23 1
    40   22   24 am
    41   24   25 2
@<TRIPOS>MOLECULE
ZINC00200632
   39    41     0     0     0
SMALL
USER_CHARGES

@<TRIPOS>ATOM
      1 C1          0.4077   -4.2167   -0.6554 C.3       1 <0>        -0.2117
      2 C2          0.2305   -2.7019   -0.7772 C.3       1 <0>        -0.0153
      3 O1          1.2276   -2.0412    0.0046 O.3       1 <0>        -0.2140
      4 C3          1.2106   -0.6817    0.0057 C.ar      1 <0>         0.0851
      5 C4          2.1506    0.0229    0.7435 C.ar      1 <0>        -0.1428
      6 C5          2.1339    1.4037    0.7450 C.ar      1 <0>        -0.0875
      7 C6          1.1759    2.0868    0.0078 C.ar      1 <0>         0.0246
      8 C7          0.2360    1.3811   -0.7312 C.ar      1 <0>        -0.1209
      9 C8          0.2535    0.0003   -0.7315 C.ar      1 <0>        -0.2065
     10 N1          1.1581    3.4878    0.0093 N.am      1 <0>        -0.3226
     11 C9          2.3129    4.1764    0.1037 C.2       1 <0>         0.2920
     12 O2          3.3730    3.5872    0.0910 O.2       1 <0>        -0.3410
     13 C10         2.2869    5.6783    0.2250 C.3       1 <0>        -0.0258
     14 N2          3.6587    6.1850    0.3118 N.am      1 <0>        -0.2793
     15 C11         4.3299    6.5135   -0.8151 C.2       1 <0>         0.4031
     16 O3          3.8025    6.3916   -1.9063 O.2       1 <0>        -0.3422
     17 C12         5.6385    6.9958   -0.7094 C.2       1 <0>        -0.4300
     18 C13         6.2644    7.1447    0.5312 C.2       1 <0>         0.0775
     19 C14         7.5656    7.6358    0.4741 C.2       1 <0>        -0.2220
     20 C15         8.1258    7.9280   -0.7224 C.2       1 <0>        -0.3090
     21 S1          6.8747    7.5379   -1.8584 S.3       1 <0>         0.5377
     22 N3          5.5007    6.7819    1.6529 N.am      1 <0>        -0.2867
     23 H1          5.8968    6.8630    2.5675 H         1 <0>         0.2715
     24 C16         4.2467    6.3280    1.5118 C.2       1 <0>         0.4174
     25 O4          3.6182    6.0297    2.5091 O.2       1 <0>        -0.3873
     26 H2         -0.3529   -4.7207   -1.2517 H         1 <0>         0.0849
     27 H3          1.3972   -4.4970   -1.0165 H         1 <0>         0.0888
     28 H4          0.3051   -4.5117    0.3889 H         1 <0>         0.0878
     29 H5         -0.7591   -2.4217   -0.4160 H         1 <0>         0.0721
     30 H6          0.3331   -2.4069   -1.8215 H         1 <0>         0.0741
     31 H7          2.8954   -0.5086    1.3172 H         1 <0>         0.1474
     32 H8          2.8630    1.9520    1.3230 H         1 <0>         0.1657
     33 H9         -0.5092    1.9119   -1.3051 H         1 <0>         0.1290
     34 H10        -0.4778   -0.5488   -1.3060 H         1 <0>         0.1356
     35 H11         0.3147    3.9622   -0.0577 H         1 <0>         0.2295
     36 H12         1.7966    6.1050   -0.6500 H         1 <0>         0.1358
     37 H13         1.7377    5.9608    1.1232 H         1 <0>         0.1378
     38 H14         8.1279    7.7832    1.3844 H         1 <0>         0.1494
     39 H15         9.1152    8.3123   -0.9222 H         1 <0>         0.1975
@<TRIPOS>BOND
     1    1    2 1
     2    1   26 1
     3    1   27 1
     4    1   28 1
     5    2    3 1
     6    2   29 1
     7    2   30 1
     8    3    4 1
     9    4    9 ar
    10    4    5 ar
    11    5    6 ar
    12    5   31 1
    13    6    7 ar
    14    6   32 1
    15    7    8 ar
    16    7   10 1
    17    8    9 ar
    18    8   33 1
    19    9   34 1
    20   10   11 am
    21   10   35 1
    22   11   12 2
    23   11   13 1
    24   13   14 1
    25   13   36 1
    26   13   37 1
    27   14   24 am
    28   14   15 am
    29   15   16 2
    30   15   17 1
    31   17   21 1
    32   17   18 2
    33   18   19 1
    34   18   22 1
    35   19   20 2
    36   19   38 1
    37   20   21 1
    38   20   39 1
    39   22   23 1
    40   22   24 am
    41   24   25 2
@<TRIPOS>MOLECULE
ZINC00201168
   43    46     0     0     0
SMALL
USER_CHARGES

@<TRIPOS>ATOM
      1 C1          0.3654    4.7719   -3.5582 C.ar      1 <0>        -0.0445
      2 C2          1.5362    4.0391   -3.5908 C.ar      1 <0>        -0.2376
      3 C3          2.1762    3.6977   -2.4058 C.ar      1 <0>         0.1522
      4 C4          1.6349    4.0894   -1.1889 C.ar      1 <0>        -0.2343
      5 C5          0.4574    4.8200   -1.1604 C.ar      1 <0>         0.1302
      6 C6         -0.1776    5.1581   -2.3478 C.ar      1 <0>        -0.2639
      7 O1         -0.0748    5.2054    0.0289 O.3       1 <0>        -0.1603
      8 C7         -1.2357    5.9078    0.0096 C.ar      1 <0>         0.0786
      9 C8         -2.4503    5.2365    0.0555 C.ar      1 <0>        -0.1295
     10 C9         -3.6406    5.9406    0.0364 C.ar      1 <0>        -0.0525
     11 C10        -3.6213    7.3267   -0.0290 C.ar      1 <0>        -0.1400
     12 C11        -2.3888    8.0117   -0.0757 C.ar      1 <0>        -0.1187
     13 C12        -1.2030    7.2995   -0.0505 C.ar      1 <0>        -0.0747
     14 C13        -2.7280    9.4494   -0.1393 C.2       1 <0>         0.3632
     15 O2         -1.9313   10.3646   -0.1913 O.2       1 <0>        -0.2804
     16 N1         -4.0675    9.5732   -0.1293 N.am      1 <0>        -0.3143
     17 C14        -4.6646    8.3696   -0.0657 C.2       1 <0>         0.3604
     18 O3         -5.8633    8.1737   -0.0430 O.2       1 <0>        -0.3096
     19 C15        -4.7821   10.8511   -0.1805 C.3       1 <0>        -0.0020
     20 C16        -5.0477   11.2288   -1.6392 C.3       1 <0>         0.0035
     21 H1         -5.6626   10.4682   -2.1203 H         1 <0>         0.1012
     22 C17        -5.7401   12.6127   -1.7189 C.3       1 <0>        -0.1901
     23 C18        -5.3307   13.0654   -3.1469 C.3       1 <0>        -0.1956
     24 C19        -3.9172   12.4612   -3.2895 C.3       1 <0>        -0.0200
     25 O4         -3.8078   11.3885   -2.3466 O.3       1 <0>        -0.2657
     26 N2          3.3629    2.9618   -2.4389 N.pl3     1 <0>        -0.4160
     27 H2         -0.1284    5.0401   -4.4805 H         1 <0>         0.1326
     28 H3          1.9565    3.7352   -4.5381 H         1 <0>         0.1308
     29 H4          2.1306    3.8258   -0.2663 H         1 <0>         0.1432
     30 H5         -1.0954    5.7271   -2.3255 H         1 <0>         0.1395
     31 H6         -2.4657    4.1578    0.1060 H         1 <0>         0.1553
     32 H7         -4.5824    5.4132    0.0726 H         1 <0>         0.1540
     33 H8         -0.2569    7.8194   -0.0812 H         1 <0>         0.1652
     34 H9         -5.7301   10.7588    0.3494 H         1 <0>         0.1162
     35 H10        -4.1764   11.6252    0.2907 H         1 <0>         0.1196
     36 H11        -6.8224   12.5160   -1.6326 H         1 <0>         0.0981
     37 H12        -5.3469   13.2928   -0.9633 H         1 <0>         0.0985
     38 H13        -5.2965   14.1527   -3.2143 H         1 <0>         0.0962
     39 H14        -6.0062   12.6531   -3.8965 H         1 <0>         0.0940
     40 H15        -3.1666   13.2215   -3.0732 H         1 <0>         0.0892
     41 H16        -3.7783   12.0800   -4.3011 H         1 <0>         0.0844
     42 H17         3.7407    2.6887   -3.2895 H         1 <0>         0.2223
     43 H18         3.8092    2.7238   -1.6112 H         1 <0>         0.2213
@<TRIPOS>BOND
     1    1    6 ar
     2    1    2 ar
     3    1   27 1
     4    2    3 ar
     5    2   28 1
     6    3    4 ar
     7    3   26 1
     8    4    5 ar
     9    4   29 1
    10    5    6 ar
    11    5    7 1
    12    6   30 1
    13    7    8 1
    14    8   13 ar
    15    8    9 ar
    16    9   10 ar
    17    9   31 1
    18   10   11 ar
    19   10   32 1
    20   11   17 1
    21   11   12 ar
    22   12   13 ar
    23   12   14 1
    24   13   33 1
    25   14   15 2
    26   14   16 am
    27   16   17 am
    28   16   19 1
    29   17   18 2
    30   19   20 1
    31   19   34 1
    32   19   35 1
    33   20   21 1
    34   20   25 1
    35   20   22 1
    36   22   23 1
    37   22   36 1
    38   22   37 1
    39   23   24 1
    40   23   38 1
    41   23   39 1
    42   24   25 1
    43   24   40 1
    44   24   41 1
    45   26   42 1
    46   26   43 1
@<TRIPOS>MOLECULE
ZINC00201361
   39    41     0     0     0
SMALL
USER_CHARGES

@<TRIPOS>ATOM
      1 C1          1.3687    1.6484   -0.0541 C.3       1 <0>        -0.2045
      2 C2         -0.0862    1.1751   -0.0631 C.3       1 <0>        -0.0783
      3 C3         -0.8056    1.7606   -1.2799 C.3       1 <0>        -0.2040
      4 C4         -0.7726    1.6369    1.1966 C.ar      1 <0>        -0.0741
      5 C5         -0.8566    2.9876    1.4808 C.ar      1 <0>        -0.1054
      6 C6         -1.4898    3.4146    2.6315 C.ar      1 <0>        -0.1592
      7 C7         -2.0327    2.4850    3.5094 C.ar      1 <0>         0.0420
      8 C8         -1.9416    1.1287    3.2236 C.ar      1 <0>        -0.1415
      9 C9         -1.3120    0.7088    2.0683 C.ar      1 <0>        -0.1119
     10 N1         -2.6684    2.9131    4.6771 N.pl3     1 <0>        -0.8131
     11 S1         -1.9580    4.0643    5.6322 S.o2      1 <0>         2.7670
     12 O1         -1.6404    5.1578    4.7822 O.2       1 <0>        -0.9107
     13 O2         -2.7841    4.2062    6.7797 O.2       1 <0>        -0.9097
     14 C10        -0.4252    3.4015    6.1941 C.ar      1 <0>        -0.7740
     15 C11        -0.3793    2.5978    7.3206 C.ar      1 <0>         0.0031
     16 C12         0.8062    2.0679    7.7709 C.ar      1 <0>        -0.1656
     17 C13         2.0144    2.3354    7.1060 C.ar      1 <0>         0.0867
     18 C14         1.9354    3.1569    5.9719 C.ar      1 <0>        -0.2652
     19 C15         0.7499    3.6822    5.5186 C.ar      1 <0>         0.0521
     20 S2          3.6231    3.2567    5.4265 S.3       1 <0>         0.2298
     21 C16         4.3503    2.2297    6.6933 C.2       1 <0>         0.2166
     22 O3          5.5175    1.9206    6.8469 O.2       1 <0>        -0.2710
     23 N2          3.2809    1.8834    7.4363 N.am      1 <0>        -0.3090
     24 H1          3.3994    1.3111    8.2105 H         1 <0>         0.2427
     25 H2          1.3963    2.7369   -0.0034 H         1 <0>         0.0765
     26 H3          1.8811    1.2312    0.8128 H         1 <0>         0.0786
     27 H4          1.8651    1.3143   -0.9651 H         1 <0>         0.0763
     28 H5         -0.1139    0.0866   -0.1137 H         1 <0>         0.0939
     29 H6         -1.8421    1.4234   -1.2863 H         1 <0>         0.0784
     30 H7         -0.7779    2.8491   -1.2292 H         1 <0>         0.0768
     31 H8         -0.3091    1.4265   -2.1909 H         1 <0>         0.0758
     32 H9         -0.4301    3.7096    0.8002 H         1 <0>         0.1401
     33 H10        -1.5590    4.4699    2.8507 H         1 <0>         0.1766
     34 H11        -2.3629    0.4033    3.9038 H         1 <0>         0.1329
     35 H12        -1.2410   -0.3455    1.8453 H         1 <0>         0.1343
     36 H13        -3.5261    2.5360    4.9285 H         1 <0>         0.2541
     37 H14        -1.2932    2.3795    7.8531 H         1 <0>         0.1541
     38 H15         0.8095    1.4411    8.6505 H         1 <0>         0.1412
     39 H16         0.7347    4.3103    4.6401 H         1 <0>         0.1676
@<TRIPOS>BOND
     1    1    2 1
     2    1   25 1
     3    1   26 1
     4    1   27 1
     5    2    3 1
     6    2    4 1
     7    2   28 1
     8    3   29 1
     9    3   30 1
    10    3   31 1
    11    4    9 ar
    12    4    5 ar
    13    5    6 ar
    14    5   32 1
    15    6    7 ar
    16    6   33 1
    17    7    8 ar
    18    7   10 1
    19    8    9 ar
    20    8   34 1
    21    9   35 1
    22   10   11 1
    23   10   36 1
    24   11   12 2
    25   11   13 2
    26   11   14 1
    27   14   19 ar
    28   14   15 ar
    29   15   16 ar
    30   15   37 1
    31   16   17 ar
    32   16   38 1
    33   17   23 1
    34   17   18 ar
    35   18   19 ar
    36   18   20 1
    37   19   39 1
    38   20   21 1
    39   21   22 2
    40   21   23 am
    41   23   24 1
@<TRIPOS>MOLECULE
ZINC00202207
   39    41     0     0     0
SMALL
USER_CHARGES

@<TRIPOS>ATOM
      1 C1          1.2206   -2.1876    0.0244 C.3       1 <0>        -0.1720
      2 C2          1.2049   -0.6807    0.0206 C.ar      1 <0>        -0.0919
      3 C3          2.1430    0.0209    0.7554 C.ar      1 <0>        -0.1147
      4 C4          2.1317    1.4019    0.7537 C.ar      1 <0>        -0.1202
      5 C5          1.1767    2.0861    0.0128 C.ar      1 <0>         0.0667
      6 C6          0.2361    1.3784   -0.7245 C.ar      1 <0>        -0.1570
      7 C7          0.2527   -0.0026   -0.7181 C.ar      1 <0>        -0.1104
      8 N1          1.1621    3.4843    0.0092 N.pl3     1 <0>        -0.2586
      9 C8          2.3471    4.1876    0.1059 C.ar      1 <0>         0.2772
     10 N2          2.3280    5.5149    0.2077 N.ar      1 <0>        -0.3405
     11 C9          3.4608    6.1880    0.3058 C.ar      1 <0>         0.1685
     12 N3          4.6172    5.5481    0.2924 N.ar      1 <0>        -0.3423
     13 C10         4.6445    4.2217    0.1855 C.ar      1 <0>         0.2775
     14 N4          3.5074    3.5409    0.0921 N.ar      1 <0>        -0.3665
     15 N5          5.8524    3.5544    0.1720 N.pl3     1 <0>        -0.3638
     16 C11         3.4344    7.6899    0.4276 C.3       1 <0>        -0.1953
     17 S1          3.4809    8.4299   -1.2236 S.3       1 <0>         0.2592
     18 C12         3.4407   10.1384   -0.7943 C.2       1 <0>        -0.2167
     19 N6          3.3916   10.6375    0.4189 N.2       1 <0>        -0.1067
     20 N7          3.3744   11.9214    0.3625 N.2       1 <0>        -0.0820
     21 C13         3.4112   12.3151   -0.8790 C.2       1 <0>        -0.1328
     22 N8          3.4607   11.1937   -1.6604 N.pl3     1 <0>        -0.1604
     23 C14         3.5195   11.1367   -3.1231 C.3       1 <0>        -0.0678
     24 H1          0.5927   -2.5555    0.8360 H         1 <0>         0.0848
     25 H2          0.8382   -2.5574   -0.9270 H         1 <0>         0.0803
     26 H3          2.2421   -2.5400    0.1670 H         1 <0>         0.0804
     27 H4          2.8851   -0.5118    1.3316 H         1 <0>         0.1314
     28 H5          2.8619    1.9492    1.3313 H         1 <0>         0.1569
     29 H6         -0.5074    1.9074   -1.3023 H         1 <0>         0.1311
     30 H7         -0.4786   -0.5535   -1.2910 H         1 <0>         0.1322
     31 H8          0.3199    3.9604   -0.0612 H         1 <0>         0.2597
     32 H9          5.8716    2.5877    0.0944 H         1 <0>         0.2422
     33 H10         6.6822    4.0521    0.2402 H         1 <0>         0.2444
     34 H11         2.5214    7.9970    0.9378 H         1 <0>         0.1476
     35 H12         4.3001    8.0233    0.9997 H         1 <0>         0.1474
     36 H13         3.4079   13.3376   -1.2266 H         1 <0>         0.2101
     37 H14         2.5073   11.1086   -3.5266 H         1 <0>         0.0963
     38 H15         4.0368   12.0187   -3.5006 H         1 <0>         0.0983
     39 H16         4.0581   10.2403   -3.4304 H         1 <0>         0.1075
@<TRIPOS>BOND
     1    1    2 1
     2    1   24 1
     3    1   25 1
     4    1   26 1
     5    2    7 ar
     6    2    3 ar
     7    3    4 ar
     8    3   27 1
     9    4    5 ar
    10    4   28 1
    11    5    6 ar
    12    5    8 1
    13    6    7 ar
    14    6   29 1
    15    7   30 1
    16    8    9 1
    17    8   31 1
    18    9   14 ar
    19    9   10 ar
    20   10   11 ar
    21   11   12 ar
    22   11   16 1
    23   12   13 ar
    24   13   14 ar
    25   13   15 1
    26   15   32 1
    27   15   33 1
    28   16   17 1
    29   16   34 1
    30   16   35 1
    31   17   18 1
    32   18   22 1
    33   18   19 2
    34   19   20 1
    35   20   21 2
    36   21   22 1
    37   21   36 1
    38   22   23 1
    39   23   37 1
    40   23   38 1
    41   23   39 1
@<TRIPOS>MOLECULE
ZINC00202450
   40    41     0     0     0
SMALL
USER_CHARGES

@<TRIPOS>ATOM
      1 C1         -0.2850    1.8141    7.3539 C.3       1 <0>        -0.1774
      2 C2         -0.8637    2.0635    5.9849 C.ar      1 <0>        -0.0122
      3 C3         -2.0064    2.8361    5.8273 C.ar      1 <0>        -0.2235
      4 C4         -2.5111    3.0455    4.5592 C.ar      1 <0>        -0.0092
      5 N1         -1.9217    2.5217    3.5015 N.ar      1 <0>        -0.1631
      6 C5         -0.8311    1.7799    3.6106 C.ar      1 <0>         0.1477
      7 C6         -0.2712    1.5235    4.8572 C.ar      1 <0>        -0.2296
      8 N2         -0.2416    1.2460    2.4658 N.am      1 <0>        -0.3097
      9 C7         -0.7168    1.5734    1.2478 C.2       1 <0>         0.3027
     10 O1         -1.7131    2.2579    1.1496 O.2       1 <0>        -0.2854
     11 C8         -0.0101    1.0891    0.0080 C.3       1 <0>        -0.3041
     12 S1         -0.8839    1.6906   -1.4585 S.3       1 <0>         0.2981
     13 C9          0.1277    0.9969   -2.7234 C.2       1 <0>         0.0062
     14 N3          1.1803    0.2802   -2.3891 N.2       1 <0>        -0.3086
     15 C10         1.9691   -0.2664   -3.3275 C.2       1 <0>         0.3261
     16 O2          2.9403   -0.9334   -3.0007 O.2       1 <0>        -0.3436
     17 C11         1.6762   -0.0640   -4.6910 C.2       1 <0>        -0.3983
     18 C12         0.5854    0.6850   -5.0269 C.2       1 <0>         0.2287
     19 N4         -0.1903    1.2164   -4.0300 N.pl3     1 <0>        -0.2180
     20 C13        -1.3647    2.0234   -4.3701 C.3       1 <0>        -0.0091
     21 C14        -0.9629    3.4712   -4.4857 C.2       1 <0>        -0.1979
     22 C15        -1.2247    4.1381   -5.5825 C.2       1 <0>        -0.1957
     23 N5          0.2695    0.9037   -6.3479 N.pl3     1 <0>        -0.4103
     24 H1         -0.7274    0.9120    7.7765 H         1 <0>         0.0929
     25 H2          0.7946    1.6863    7.2742 H         1 <0>         0.0860
     26 H3         -0.5035    2.6635    8.0010 H         1 <0>         0.0880
     27 H4         -2.4957    3.2685    6.6875 H         1 <0>         0.1390
     28 H5         -3.3996    3.6461    4.4316 H         1 <0>         0.1650
     29 H6          0.6163    0.9141    4.9438 H         1 <0>         0.1365
     30 H7          0.5106    0.6387    2.5457 H         1 <0>         0.2426
     31 H8          0.0047   -0.0008    0.0006 H         1 <0>         0.1449
     32 H9          1.0125    1.4664    0.0019 H         1 <0>         0.1466
     33 H10         2.3043   -0.4939   -5.4572 H         1 <0>         0.1629
     34 H11        -1.7762    1.6835   -5.3205 H         1 <0>         0.1007
     35 H12        -2.1175    1.9165   -3.5892 H         1 <0>         0.1291
     36 H13        -0.4592    3.9591   -3.6643 H         1 <0>         0.1498
     37 H14        -1.7285    3.6502   -6.4038 H         1 <0>         0.1060
     38 H15        -0.9368    5.1757   -5.6653 H         1 <0>         0.1282
     39 H16        -0.5069    1.4372   -6.5790 H         1 <0>         0.2202
     40 H17         0.8232    0.5244   -7.0482 H         1 <0>         0.2478
@<TRIPOS>BOND
     1    1    2 1
     2    1   24 1
     3    1   25 1
     4    1   26 1
     5    2    7 ar
     6    2    3 ar
     7    3    4 ar
     8    3   27 1
     9    4    5 ar
    10    4   28 1
    11    5    6 ar
    12    6    7 ar
    13    6    8 1
    14    7   29 1
    15    8    9 am
    16    8   30 1
    17    9   10 2
    18    9   11 1
    19   11   12 1
    20   11   31 1
    21   11   32 1
    22   12   13 1
    23   13   19 1
    24   13   14 2
    25   14   15 1
    26   15   16 2
    27   15   17 1
    28   17   18 2
    29   17   33 1
    30   18   19 1
    31   18   23 1
    32   19   20 1
    33   20   21 1
    34   20   34 1
    35   20   35 1
    36   21   22 2
    37   21   36 1
    38   22   37 1
    39   22   38 1
    40   23   39 1
    41   23   40 1
@<TRIPOS>MOLECULE
ZINC00204943
   38    40     0     0     0
SMALL
USER_CHARGES

@<TRIPOS>ATOM
      1 C1          6.1643    1.2675   -0.0495 C.3       1 <0>        -0.1601
      2 C2          4.7284    0.8099   -0.0388 C.2       1 <0>        -0.0705
      3 C3          4.4089   -0.4969   -0.0427 C.2       1 <0>        -0.3201
      4 S1          2.6283   -0.4836   -0.0180 S.3       1 <0>         0.4961
      5 C4          2.3520    1.2258   -0.0138 C.2       1 <0>        -0.1450
      6 C5          3.6377    1.7551   -0.0232 C.2       1 <0>        -0.2304
      7 C6          3.8739    3.2020   -0.0182 C.2       1 <0>         0.3613
      8 O1          3.9822    3.7973    1.0379 O.2       1 <0>        -0.3564
      9 N1          3.9709    3.8731   -1.1830 N.am      1 <0>        -0.4283
     10 N2          1.1435    1.9018    0.0014 N.am      1 <0>        -0.2509
     11 C7         -0.0144    1.2121    0.0087 C.2       1 <0>         0.3579
     12 O2          0.0021   -0.0041    0.0020 O.2       1 <0>        -0.3311
     13 C8         -1.2994    1.9309    0.0187 C.2       1 <0>         0.0030
     14 C9         -2.4477    1.2123    0.0202 C.2       1 <0>        -0.1289
     15 C10        -3.7319    1.9165    0.0302 C.ar      1 <0>        -0.0162
     16 C11        -4.9492    1.2370    0.0327 C.ar      1 <0>        -0.1169
     17 C12        -6.1271    1.9542    0.0426 C.ar      1 <0>        -0.0939
     18 C13        -6.1119    3.3418    0.0500 C.ar      1 <0>        -0.1338
     19 C14        -4.9182    4.0341    0.0477 C.ar      1 <0>        -0.0547
     20 C15        -3.7173    3.3311    0.0378 C.ar      1 <0>        -0.1565
     21 C16        -2.4141    4.0120    0.0353 C.2       1 <0>         0.3707
     22 O3         -2.3557    5.2268    0.0412 O.2       1 <0>        -0.2878
     23 O4         -1.2881    3.2781    0.0315 O.3       1 <0>        -0.1865
     24 C17         5.3348   -1.6858   -0.0580 C.3       1 <0>        -0.1237
     25 H1          6.5200    1.3720    0.9755 H         1 <0>         0.0973
     26 H2          6.7758    0.5328   -0.5732 H         1 <0>         0.0804
     27 H3          6.2355    2.2287   -0.5586 H         1 <0>         0.0824
     28 H4          3.8845    3.3987   -2.0247 H         1 <0>         0.2190
     29 H5          4.1272    4.8304   -1.1796 H         1 <0>         0.2285
     30 H6          1.1303    2.8717    0.0067 H         1 <0>         0.2647
     31 H7         -2.4166    0.1328    0.0139 H         1 <0>         0.1807
     32 H8         -4.9697    0.1572    0.0266 H         1 <0>         0.1442
     33 H9         -7.0715    1.4303    0.0450 H         1 <0>         0.1388
     34 H10        -7.0447    3.8860    0.0581 H         1 <0>         0.1413
     35 H11        -4.9159    5.1141    0.0539 H         1 <0>         0.1593
     36 H12         5.5679   -1.9779    0.9660 H         1 <0>         0.0915
     37 H13         4.8511   -2.5165   -0.5717 H         1 <0>         0.0848
     38 H14         6.2553   -1.4227   -0.5792 H         1 <0>         0.0897
@<TRIPOS>BOND
     1    1    2 1
     2    1   25 1
     3    1   26 1
     4    1   27 1
     5    2    6 1
     6    2    3 2
     7    3    4 1
     8    3   24 1
     9    4    5 1
    10    5    6 2
    11    5   10 1
    12    6    7 1
    13    7    8 2
    14    7    9 am
    15    9   28 1
    16    9   29 1
    17   10   11 am
    18   10   30 1
    19   11   12 2
    20   11   13 1
    21   13   23 1
    22   13   14 2
    23   14   15 1
    24   14   31 1
    25   15   20 ar
    26   15   16 ar
    27   16   17 ar
    28   16   32 1
    29   17   18 ar
    30   17   33 1
    31   18   19 ar
    32   18   34 1
    33   19   20 ar
    34   19   35 1
    35   20   21 1
    36   21   22 2
    37   21   23 1
    38   24   36 1
    39   24   37 1
    40   24   38 1
@<TRIPOS>MOLECULE
ZINC00205662
   38    39     0     0     0
SMALL
USER_CHARGES

@<TRIPOS>ATOM
      1 C1          0.6755    5.2785   -1.7665 C.2       1 <0>        -0.1704
      2 C2          0.4435    4.0467   -1.3859 C.2       1 <0>        -0.2208
      3 C3          0.0122    3.7642    0.0302 C.3       1 <0>        -0.0067
      4 N1         -1.2419    3.0070    0.0168 N.pl3     1 <0>        -0.2173
      5 C4         -1.2124    1.6371   -0.0052 C.2       1 <0>         0.2259
      6 C5         -2.3911    0.9482   -0.0121 C.2       1 <0>        -0.3972
      7 C6         -3.6013    1.6699   -0.0018 C.2       1 <0>         0.3262
      8 O1         -4.6701    1.0763   -0.0073 O.2       1 <0>        -0.3427
      9 N2         -3.5758    3.0118    0.0145 N.2       1 <0>        -0.3091
     10 C7         -2.4338    3.6670    0.0211 C.2       1 <0>         0.0107
     11 S1         -2.4472    5.4288    0.0432 S.3       1 <0>         0.2943
     12 C8         -4.2321    5.7295    0.0495 C.3       1 <0>        -0.3022
     13 C9         -4.4913    7.2139    0.0685 C.2       1 <0>         0.3161
     14 O2         -3.5609    7.9920    0.0769 O.2       1 <0>        -0.3515
     15 N3         -5.7570    7.6769    0.0761 N.am      1 <0>        -0.3177
     16 C10        -5.9990    9.0502    0.1913 C.ar      1 <0>         0.0560
     17 C11        -7.1089    9.5049    0.8913 C.ar      1 <0>        -0.1564
     18 C12        -7.3417   10.8613    1.0081 C.ar      1 <0>        -0.1121
     19 C13        -6.4771   11.7659    0.4197 C.ar      1 <0>        -0.1410
     20 C14        -5.3744   11.3162   -0.2832 C.ar      1 <0>        -0.1131
     21 C15        -5.1329    9.9613   -0.3989 C.ar      1 <0>        -0.1254
     22 N4         -0.0119    0.9654   -0.0144 N.pl3     1 <0>        -0.4120
     23 H1          0.9846    5.4810   -2.7813 H         1 <0>         0.1249
     24 H2          0.5577    6.0916   -1.0655 H         1 <0>         0.1221
     25 H3          0.5614    3.2336   -2.0869 H         1 <0>         0.1369
     26 H4         -0.1374    4.7055    0.5591 H         1 <0>         0.1233
     27 H5          0.7828    3.1820    0.5354 H         1 <0>         0.1036
     28 H6         -2.3958   -0.1317   -0.0249 H         1 <0>         0.1630
     29 H7         -4.6770    5.2944   -0.8454 H         1 <0>         0.1474
     30 H8         -4.6744    5.2721    0.9344 H         1 <0>         0.1484
     31 H9         -6.5003    7.0581    0.0016 H         1 <0>         0.2385
     32 H10        -7.7869    8.7988    1.3473 H         1 <0>         0.1306
     33 H11        -8.2024   11.2156    1.5559 H         1 <0>         0.1319
     34 H12        -6.6636   12.8259    0.5090 H         1 <0>         0.1298
     35 H13        -4.7012   12.0253   -0.7420 H         1 <0>         0.1338
     36 H14        -4.2715    9.6107   -0.9480 H         1 <0>         0.1632
     37 H15         0.0011   -0.0044   -0.0259 H         1 <0>         0.2481
     38 H16         0.8216    1.4617   -0.0134 H         1 <0>         0.2211
@<TRIPOS>BOND
     1    1    2 2
     2    1   23 1
     3    1   24 1
     4    2    3 1
     5    2   25 1
     6    3    4 1
     7    3   26 1
     8    3   27 1
     9    4   10 1
    10    4    5 1
    11    5    6 2
    12    5   22 1
    13    6    7 1
    14    6   28 1
    15    7    8 2
    16    7    9 1
    17    9   10 2
    18   10   11 1
    19   11   12 1
    20   12   13 1
    21   12   29 1
    22   12   30 1
    23   13   14 2
    24   13   15 am
    25   15   16 1
    26   15   31 1
    27   16   21 ar
    28   16   17 ar
    29   17   18 ar
    30   17   32 1
    31   18   19 ar
    32   18   33 1
    33   19   20 ar
    34   19   34 1
    35   20   21 ar
    36   20   35 1
    37   21   36 1
    38   22   37 1
    39   22   38 1
@<TRIPOS>MOLECULE
ZINC00205663
   41    42     0     0     0
SMALL
USER_CHARGES

@<TRIPOS>ATOM
      1 C1          1.1432    3.5928   -0.0155 C.3       1 <0>        -0.1728
      2 C2          1.1682    2.0860   -0.0167 C.ar      1 <0>        -0.0882
      3 C3          2.1113    1.4123   -0.7709 C.ar      1 <0>        -0.1111
      4 C4          2.1370    0.0314   -0.7742 C.ar      1 <0>        -0.1221
      5 C5          1.2143   -0.6805   -0.0189 C.ar      1 <0>         0.0536
      6 C6          0.2684   -0.0009    0.7374 C.ar      1 <0>        -0.1535
      7 C7          0.2481    1.3801    0.7364 C.ar      1 <0>        -0.1111
      8 N1          1.2373   -2.0795   -0.0204 N.am      1 <0>        -0.3175
      9 C8          2.4096   -2.7341   -0.1369 C.2       1 <0>         0.3144
     10 O1          3.4521   -2.1143   -0.1440 O.2       1 <0>        -0.3484
     11 C9          2.4252   -4.2361   -0.2581 C.3       1 <0>        -0.3024
     12 S1          4.1353   -4.8125   -0.3976 S.3       1 <0>         0.2943
     13 C10         3.8637   -6.5490   -0.5220 C.2       1 <0>         0.0065
     14 N2          2.6328   -7.0150   -0.4867 N.2       1 <0>        -0.3079
     15 C11         2.3906   -8.3317   -0.5836 C.2       1 <0>         0.3259
     16 O2          1.2415   -8.7482   -0.5540 O.2       1 <0>        -0.3422
     17 C12         3.4665   -9.2323   -0.7145 C.2       1 <0>        -0.3978
     18 C13         4.7392   -8.7392   -0.7448 C.2       1 <0>         0.2286
     19 N3          4.9315   -7.3859   -0.6473 N.pl3     1 <0>        -0.2179
     20 C14         6.2896   -6.8374   -0.6774 C.3       1 <0>        -0.0090
     21 C15         6.8324   -6.7626    0.7264 C.2       1 <0>        -0.1985
     22 C16         7.9702   -7.3416    1.0205 C.2       1 <0>        -0.1950
     23 N4          5.8136   -9.5890   -0.8711 N.pl3     1 <0>        -0.4102
     24 H1          0.4909    3.9460   -0.8142 H         1 <0>         0.0850
     25 H2          0.7684    3.9492    0.9440 H         1 <0>         0.0809
     26 H3          2.1521    3.9731   -0.1754 H         1 <0>         0.0822
     27 H4          2.8315    1.9666   -1.3546 H         1 <0>         0.1348
     28 H5          2.8736   -0.4942   -1.3637 H         1 <0>         0.1578
     29 H6         -0.4507   -0.5517    1.3255 H         1 <0>         0.1304
     30 H7         -0.4870    1.9092    1.3247 H         1 <0>         0.1328
     31 H8          0.4094   -2.5783    0.0623 H         1 <0>         0.2380
     32 H9          1.9642   -4.6768    0.6259 H         1 <0>         0.1473
     33 H10         1.8676   -4.5348   -1.1458 H         1 <0>         0.1480
     34 H11         3.2873  -10.2947   -0.7892 H         1 <0>         0.1632
     35 H12         6.9288   -7.4825   -1.2802 H         1 <0>         0.1009
     36 H13         6.2683   -5.8381   -1.1124 H         1 <0>         0.1283
     37 H14         6.2835   -6.2317    1.4901 H         1 <0>         0.1497
     38 H15         8.5191   -7.8725    0.2568 H         1 <0>         0.1062
     39 H16         8.3592   -7.2881    2.0266 H         1 <0>         0.1285
     40 H17         6.7150   -9.2315   -0.8916 H         1 <0>         0.2202
     41 H18         5.6697  -10.5459   -0.9397 H         1 <0>         0.2481
@<TRIPOS>BOND
     1    1    2 1
     2    1   24 1
     3    1   25 1
     4    1   26 1
     5    2    7 ar
     6    2    3 ar
     7    3    4 ar
     8    3   27 1
     9    4    5 ar
    10    4   28 1
    11    5    6 ar
    12    5    8 1
    13    6    7 ar
    14    6   29 1
    15    7   30 1
    16    8    9 am
    17    8   31 1
    18    9   10 2
    19    9   11 1
    20   11   12 1
    21   11   32 1
    22   11   33 1
    23   12   13 1
    24   13   19 1
    25   13   14 2
    26   14   15 1
    27   15   16 2
    28   15   17 1
    29   17   18 2
    30   17   34 1
    31   18   19 1
    32   18   23 1
    33   19   20 1
    34   20   21 1
    35   20   35 1
    36   20   36 1
    37   21   22 2
    38   21   37 1
    39   22   38 1
    40   22   39 1
    41   23   40 1
    42   23   41 1
@<TRIPOS>MOLECULE
ZINC00208895
   40    43     0     0     0
SMALL
USER_CHARGES

@<TRIPOS>ATOM
      1 C1         -7.3494    1.3387   -8.0326 C.3       1 <0>        -0.1729
      2 C2         -6.4867    2.2982   -7.2541 C.ar      1 <0>        -0.1406
      3 C3         -6.1288    1.9856   -5.9825 C.ar      1 <0>        -0.0236
      4 C4         -5.3226    2.8748   -5.2449 C.ar      1 <0>        -0.1124
      5 C5         -4.8854    4.1261   -5.8719 C.ar      1 <0>         0.0833
      6 C6         -5.2824    4.4001   -7.1878 C.ar      1 <0>        -0.2297
      7 C7         -6.0725    3.4915   -7.8598 C.ar      1 <0>         0.1635
      8 N1         -6.4663    3.7654   -9.1665 N.pl3     1 <0>        -0.4025
      9 N2         -4.1193    4.9768   -5.1799 N.ar      1 <0>        -0.1956
     10 C8         -3.7701    4.6776   -3.9445 C.ar      1 <0>         0.1331
     11 C9         -4.1950    3.4678   -3.3423 C.ar      1 <0>        -0.1580
     12 N3         -4.9501    2.6055   -3.9950 N.ar      1 <0>        -0.0082
     13 C10        -3.7643    3.1971   -1.9515 C.2       1 <0>         0.3614
     14 O1         -4.0977    2.1756   -1.3836 O.2       1 <0>        -0.2990
     15 N4         -2.9917    4.1135   -1.3306 N.am      1 <0>        -0.3010
     16 C11        -2.6222    5.2466   -1.9466 C.2       1 <0>         0.4137
     17 O2         -1.9300    6.0389   -1.3377 O.2       1 <0>        -0.3776
     18 N5         -2.9776    5.5424   -3.2071 N.am      1 <0>        -0.2937
     19 H1         -2.6661    6.3986   -3.6193 H         1 <0>         0.2836
     20 C12        -2.5528    3.8685    0.0455 C.3       1 <0>         0.0351
     21 C13        -1.2377    3.1328    0.0299 C.ar      1 <0>        -0.1203
     22 C14        -1.2190    1.7507    0.0173 C.ar      1 <0>        -0.1031
     23 C15        -0.0126    1.0758    0.0080 C.ar      1 <0>        -0.1362
     24 C16         1.1750    1.7832    0.0004 C.ar      1 <0>        -0.1181
     25 C17         1.1563    3.1654    0.0076 C.ar      1 <0>        -0.1372
     26 C18        -0.0501    3.8402    0.0223 C.ar      1 <0>        -0.1023
     27 H2         -8.3998    1.5785   -7.8674 H         1 <0>         0.0904
     28 H3         -7.1200    1.4237   -9.0948 H         1 <0>         0.0756
     29 H4         -7.1524    0.3200   -7.6987 H         1 <0>         0.0928
     30 H5         -6.4605    1.0588   -5.5382 H         1 <0>         0.1580
     31 H6         -4.9722    5.3147   -7.6713 H         1 <0>         0.1547
     32 H7         -7.0218    3.1328   -9.6483 H         1 <0>         0.2278
     33 H8         -6.1851    4.5888   -9.5953 H         1 <0>         0.2274
     34 H9         -3.2997    3.2667    0.5633 H         1 <0>         0.1229
     35 H10        -2.4307    4.8201    0.5628 H         1 <0>         0.1248
     36 H11        -2.1469    1.1980    0.0188 H         1 <0>         0.1473
     37 H12         0.0021   -0.0041    0.0020 H         1 <0>         0.1310
     38 H13         2.1175    1.2560   -0.0115 H         1 <0>         0.1276
     39 H14         2.0841    3.7181    0.0014 H         1 <0>         0.1304
     40 H15        -0.0647    4.9201    0.0276 H         1 <0>         0.1478
@<TRIPOS>BOND
     1    1    2 1
     2    1   27 1
     3    1   28 1
     4    1   29 1
     5    2    7 ar
     6    2    3 ar
     7    3    4 ar
     8    3   30 1
     9    4   12 ar
    10    4    5 ar
    11    5    6 ar
    12    5    9 ar
    13    6    7 ar
    14    6   31 1
    15    7    8 1
    16    8   32 1
    17    8   33 1
    18    9   10 ar
    19   10   18 1
    20   10   11 ar
    21   11   12 ar
    22   11   13 1
    23   13   14 2
    24   13   15 am
    25   15   16 am
    26   15   20 1
    27   16   17 2
    28   16   18 am
    29   18   19 1
    30   20   21 1
    31   20   34 1
    32   20   35 1
    33   21   26 ar
    34   21   22 ar
    35   22   23 ar
    36   22   36 1
    37   23   24 ar
    38   23   37 1
    39   24   25 ar
    40   24   38 1
    41   25   26 ar
    42   25   39 1
    43   26   40 1
@<TRIPOS>MOLECULE
ZINC00210582
   37    39     0     0     0
SMALL
USER_CHARGES

@<TRIPOS>ATOM
      1 C1          3.5005    8.4336    0.4966 C.ar      1 <0>        -0.1226
      2 C2          3.6760    9.7987    0.3946 C.ar      1 <0>        -0.0989
      3 C3          4.7525   10.3145   -0.3083 C.ar      1 <0>        -0.0902
      4 C4          5.6575    9.4596   -0.9112 C.ar      1 <0>        -0.0684
      5 C5          5.4887    8.0905   -0.8062 C.ar      1 <0>        -0.1408
      6 C6          4.4072    7.5729   -0.1075 C.ar      1 <0>         0.0475
      7 N1          4.2341    6.1880   -0.0073 N.am      1 <0>        -0.3136
      8 C7          2.9929    5.6628    0.0004 C.2       1 <0>         0.3241
      9 O1          2.0251    6.3938    0.0054 O.2       1 <0>        -0.3305
     10 C8          2.8075    4.1672    0.0030 C.3       1 <0>        -0.3662
     11 S1          1.0398    3.7784    0.0138 S.3       1 <0>         0.3882
     12 C9          1.1137    2.0180    0.0151 C.2       1 <0>        -0.0130
     13 N2         -0.0154    1.3242    0.0225 N.2       1 <0>        -0.2835
     14 C10         0.0028   -0.0045    0.0237 C.2       1 <0>         0.2091
     15 C11         1.2264   -0.6650    0.0171 C.2       1 <0>        -0.3044
     16 C12         2.3903    0.0957    0.0098 C.2       1 <0>         0.2839
     17 N3          2.2970    1.4213    0.0088 N.am      1 <0>        -0.2378
     18 O2          3.6042   -0.5069    0.0038 O.2       1 <0>        -0.4377
     19 O3         -1.1563   -0.7069    0.0312 O.3       1 <0>        -0.2190
     20 C13         6.7328   10.2634   -1.6106 C.3       1 <0>        -0.1198
     21 C14         6.6356   11.6800   -1.0061 C.3       1 <0>        -0.1596
     22 C15         5.1592   11.7506   -0.5620 C.3       1 <0>        -0.1203
     23 H1          2.6598    8.0358    1.0455 H         1 <0>         0.1638
     24 H2          2.9707   10.4680    0.8646 H         1 <0>         0.1361
     25 H3          6.1977    7.4230   -1.2732 H         1 <0>         0.1289
     26 H4          5.0074    5.6059    0.0566 H         1 <0>         0.2345
     27 H5          3.2779    3.7443    0.8907 H         1 <0>         0.1284
     28 H6          3.2675    3.7426   -0.8892 H         1 <0>         0.1304
     29 H7          1.2717   -1.7441    0.0177 H         1 <0>         0.1862
     30 H8          3.1296    1.9752    0.0031 H         1 <0>         0.2533
     31 H9         -1.9300   -0.0733    0.0352 H         1 <0>         0.2541
     32 H10         7.7149    9.8340   -1.4127 H         1 <0>         0.0895
     33 H11         6.5428   10.2961   -2.6835 H         1 <0>         0.0978
     34 H12         7.3030   11.7826   -0.1503 H         1 <0>         0.0915
     35 H13         6.8503   12.4383   -1.7591 H         1 <0>         0.0901
     36 H14         4.5466   12.1830   -1.3531 H         1 <0>         0.0976
     37 H15         5.0668   12.3370    0.3522 H         1 <0>         0.0910
@<TRIPOS>BOND
     1    1    6 ar
     2    1    2 ar
     3    1   23 1
     4    2    3 ar
     5    2   24 1
     6    3   22 1
     7    3    4 ar
     8    4    5 ar
     9    4   20 1
    10    5    6 ar
    11    5   25 1
    12    6    7 1
    13    7    8 am
    14    7   26 1
    15    8    9 2
    16    8   10 1
    17   10   11 1
    18   10   27 1
    19   10   28 1
    20   11   12 1
    21   12   13 2
    22   12   17 1
    23   13   14 1
    24   14   19 1
    25   14   15 2
    26   15   29 1
    27   15   16 1
    28   16   17 am
    29   16   18 2
    30   17   30 1
    31   19   31 1
    32   20   21 1
    33   20   32 1
    34   20   33 1
    35   21   22 1
    36   21   34 1
    37   21   35 1
    38   22   36 1
    39   22   37 1
@<TRIPOS>MOLECULE
ZINC00216209
   41    43     0     0     0
SMALL
USER_CHARGES

@<TRIPOS>ATOM
      1 C1         -1.9191    0.2636    2.1352 C.3       1 <0>        -0.1683
      2 C2         -2.1401    1.5761    1.4285 C.ar      1 <0>        -0.1061
      3 C3         -3.3455    2.2378    1.5600 C.ar      1 <0>        -0.1129
      4 C4         -3.5487    3.4425    0.9126 C.ar      1 <0>        -0.1372
      5 C5         -2.5468    3.9888    0.1313 C.ar      1 <0>        -0.1166
      6 C6         -1.3376    3.3350   -0.0001 C.ar      1 <0>        -0.1210
      7 C7         -1.1321    2.1219    0.6446 C.ar      1 <0>         0.0568
      8 N1          0.0894    1.4545    0.5093 N.am      1 <0>        -0.3219
      9 C8          1.2333    2.1586    0.3978 C.2       1 <0>         0.3486
     10 O1          1.1963    3.3721    0.3331 O.2       1 <0>        -0.3460
     11 C9          2.5316    1.4560    0.3543 C.ar      1 <0>        -0.1663
     12 C10         2.5774    0.0622    0.4343 C.ar      1 <0>        -0.0321
     13 C11         3.7913   -0.5886    0.3879 C.ar      1 <0>        -0.1945
     14 C12         4.9667    0.1383    0.2735 C.ar      1 <0>         0.2171
     15 C13         4.9275    1.5221    0.1990 C.ar      1 <0>        -0.8076
     16 C14         3.7183    2.1830    0.2388 C.ar      1 <0>         0.0547
     17 S1          6.4257    2.4378    0.0528 S.o2      1 <0>         2.7636
     18 O2          6.0574    3.8070   -0.0407 O.2       1 <0>        -0.9009
     19 O3          7.2994    1.9511    1.0623 O.2       1 <0>        -0.8979
     20 N2          7.1082    2.0311   -1.4002 N.pl3     1 <0>        -0.8462
     21 C15         6.4040    2.3300   -2.6496 C.3       1 <0>        -0.0198
     22 C16         6.5808    1.3509   -3.8119 C.3       1 <0>        -0.2326
     23 C17         7.2510    2.7254   -3.8608 C.3       1 <0>        -0.2140
     24 F1          6.1544   -0.5044    0.2342 F         1 <0>        -0.0842
     25 H1         -1.5011    0.4495    3.1245 H         1 <0>         0.0916
     26 H2         -2.8699   -0.2599    2.2350 H         1 <0>         0.0854
     27 H3         -1.2265   -0.3482    1.5572 H         1 <0>         0.0627
     28 H4         -4.1298    1.8139    2.1694 H         1 <0>         0.1319
     29 H5         -4.4918    3.9582    1.0177 H         1 <0>         0.1302
     30 H6         -2.7086    4.9302   -0.3728 H         1 <0>         0.1347
     31 H7         -0.5541    3.7643   -0.6069 H         1 <0>         0.1656
     32 H8          0.1130    0.4850    0.4917 H         1 <0>         0.2318
     33 H9          1.6629   -0.5046    0.5278 H         1 <0>         0.1354
     34 H10         3.8276   -1.6665    0.4455 H         1 <0>         0.1551
     35 H11         3.6888    3.2610    0.1810 H         1 <0>         0.1898
     36 H12         7.9743    1.5949   -1.4240 H         1 <0>         0.2501
     37 H13         5.4311    2.8087   -2.5379 H         1 <0>         0.1477
     38 H14         7.2211    0.4843   -3.6470 H         1 <0>         0.1171
     39 H15         5.7241    1.1851   -4.4651 H         1 <0>         0.1167
     40 H16         6.8353    3.4639   -4.5462 H         1 <0>         0.1203
     41 H17         8.3322    2.7635   -3.7280 H         1 <0>         0.1190
@<TRIPOS>BOND
     1    1    2 1
     2    1   25 1
     3    1   26 1
     4    1   27 1
     5    2    7 ar
     6    2    3 ar
     7    3    4 ar
     8    3   28 1
     9    4    5 ar
    10    4   29 1
    11    5    6 ar
    12    5   30 1
    13    6    7 ar
    14    6   31 1
    15    7    8 1
    16    8    9 am
    17    8   32 1
    18    9   10 2
    19    9   11 1
    20   11   16 ar
    21   11   12 ar
    22   12   13 ar
    23   12   33 1
    24   13   14 ar
    25   13   34 1
    26   14   15 ar
    27   14   24 1
    28   15   16 ar
    29   15   17 1
    30   16   35 1
    31   17   18 2
    32   17   19 2
    33   17   20 1
    34   20   21 1
    35   20   36 1
    36   21   23 1
    37   21   22 1
    38   21   37 1
    39   22   23 1
    40   22   38 1
    41   22   39 1
    42   23   40 1
    43   23   41 1
@<TRIPOS>MOLECULE
ZINC00216210
   40    41     0     0     0
SMALL
USER_CHARGES

@<TRIPOS>ATOM
      1 C1          5.7781    3.5887    1.3105 C.3       1 <0>        -0.2039
      2 C2          4.9470    4.0875    0.1267 C.3       1 <0>        -0.0767
      3 C3          5.7057    3.8246   -1.1757 C.3       1 <0>        -0.2038
      4 C4          3.6285    3.3585    0.0959 C.ar      1 <0>        -0.0803
      5 C5          2.4456    4.0675    0.1976 C.ar      1 <0>        -0.1093
      6 C6          1.2355    3.4025    0.1693 C.ar      1 <0>        -0.1209
      7 C7          1.2075    2.0200    0.0385 C.ar      1 <0>         0.0500
      8 C8          2.3975    1.3104   -0.0577 C.ar      1 <0>        -0.1572
      9 C9          3.6040    1.9820   -0.0344 C.ar      1 <0>        -0.1089
     10 N1         -0.0162    1.3436    0.0094 N.am      1 <0>        -0.3221
     11 C10        -1.0867    1.9121   -0.5799 C.2       1 <0>         0.3484
     12 O1         -1.0121    3.0463   -1.0114 O.2       1 <0>        -0.3442
     13 C11        -2.3504    1.1573   -0.7015 C.ar      1 <0>        -0.1661
     14 C12        -2.4371   -0.1480   -0.2118 C.ar      1 <0>        -0.0300
     15 C13        -3.6202   -0.8458   -0.3231 C.ar      1 <0>        -0.1952
     16 C14        -4.7200   -0.2586   -0.9304 C.ar      1 <0>         0.2137
     17 C15        -4.6379    1.0348   -1.4229 C.ar      1 <0>        -0.8106
     18 C16        -3.4610    1.7440   -1.3117 C.ar      1 <0>         0.0584
     19 S1         -6.0405    1.7736   -2.1920 S.o2      1 <0>         2.7638
     20 O2         -7.1415    1.5606   -1.3192 O.2       1 <0>        -0.9003
     21 O3         -5.6386    3.0713   -2.6087 O.2       1 <0>        -0.9042
     22 N2         -6.3549    0.9103   -3.5697 N.pl3     1 <0>        -0.9251
     23 F1         -5.8758   -0.9491   -1.0420 F         1 <0>        -0.0809
     24 H1          5.2376    3.7760    2.2384 H         1 <0>         0.0778
     25 H2          5.9568    2.5188    1.2038 H         1 <0>         0.0738
     26 H3          6.7318    4.1160    1.3328 H         1 <0>         0.0745
     27 H4          4.7682    5.1574    0.2334 H         1 <0>         0.0951
     28 H5          5.1136    4.1800   -2.0191 H         1 <0>         0.0802
     29 H6          6.6594    4.3519   -1.1535 H         1 <0>         0.0739
     30 H7          5.8844    2.7547   -1.2824 H         1 <0>         0.0739
     31 H8          2.4681    5.1425    0.2990 H         1 <0>         0.1363
     32 H9          0.3120    3.9568    0.2485 H         1 <0>         0.1656
     33 H10         2.3792    0.2349   -0.1547 H         1 <0>         0.1265
     34 H11         4.5296    1.4312   -0.1137 H         1 <0>         0.1336
     35 H12        -0.0955    0.4669    0.4169 H         1 <0>         0.2298
     36 H13        -1.5798   -0.6079    0.2573 H         1 <0>         0.1368
     37 H14        -3.6896   -1.8536    0.0588 H         1 <0>         0.1562
     38 H15        -3.3980    2.7513   -1.6960 H         1 <0>         0.1920
     39 H16        -7.2639    0.8394   -3.9009 H         1 <0>         0.2480
     40 H17        -5.6301    0.4755   -4.0457 H         1 <0>         0.2314
@<TRIPOS>BOND
     1    1    2 1
     2    1   24 1
     3    1   25 1
     4    1   26 1
     5    2    3 1
     6    2    4 1
     7    2   27 1
     8    3   28 1
     9    3   29 1
    10    3   30 1
    11    4    9 ar
    12    4    5 ar
    13    5    6 ar
    14    5   31 1
    15    6    7 ar
    16    6   32 1
    17    7    8 ar
    18    7   10 1
    19    8    9 ar
    20    8   33 1
    21    9   34 1
    22   10   11 am
    23   10   35 1
    24   11   12 2
    25   11   13 1
    26   13   18 ar
    27   13   14 ar
    28   14   15 ar
    29   14   36 1
    30   15   16 ar
    31   15   37 1
    32   16   17 ar
    33   16   23 1
    34   17   18 ar
    35   17   19 1
    36   18   38 1
    37   19   20 2
    38   19   21 2
    39   19   22 1
    40   22   39 1
    41   22   40 1
@<TRIPOS>MOLECULE
ZINC00218284
   43    45     0     0     0
SMALL
USER_CHARGES

@<TRIPOS>ATOM
      1 C1         -3.5612    3.1380    0.0213 C.3       1 <0>        -0.0635
      2 O1         -2.3598    3.9116    0.0094 O.3       1 <0>        -0.2092
      3 C2         -1.1856    3.2275    0.0018 C.ar      1 <0>         0.1445
      4 C3         -1.1903    1.8396   -0.0010 C.ar      1 <0>        -0.2616
      5 C4          0.0031    1.1437   -0.0035 C.ar      1 <0>        -0.0362
      6 C5          1.2042    1.8271   -0.0146 C.ar      1 <0>        -0.1863
      7 C6          1.2142    3.2146   -0.0180 C.ar      1 <0>         0.1444
      8 C7          0.0178    3.9154   -0.0098 C.ar      1 <0>        -0.2574
      9 O2          2.3956    3.8861   -0.0290 O.3       1 <0>        -0.2052
     10 C8          2.3304    5.3136   -0.0319 C.3       1 <0>        -0.0662
     11 C9          2.5042    1.0648   -0.0236 C.3       1 <0>         0.0517
     12 N1          3.0577    1.0276    1.3323 N.am      1 <0>        -0.3719
     13 C10         4.2244    0.3947    1.5667 C.2       1 <0>         0.3443
     14 O3          4.7704   -0.2229    0.6743 O.2       1 <0>        -0.3714
     15 C11         4.8416    0.4522    2.9142 C.2       1 <0>        -0.0363
     16 C12         4.1827    1.0334    3.9593 C.2       1 <0>        -0.1865
     17 C13         4.8153    1.0715    5.2759 C.2       1 <0>         0.3300
     18 O4          4.2263    1.5860    6.2099 O.2       1 <0>        -0.3645
     19 N2          6.0392    0.5506    5.4711 N.am      1 <0>        -0.2796
     20 H1          6.4501    0.5928    6.3818 H         1 <0>         0.2541
     21 C14         6.7392   -0.0405    4.4411 C.ar      1 <0>         0.0926
     22 C15         6.1796   -0.1102    3.1528 C.ar      1 <0>        -0.1011
     23 C16         6.8970   -0.7105    2.1141 C.ar      1 <0>        -0.0639
     24 C17         8.1387   -1.2268    2.3555 C.ar      1 <0>        -0.1698
     25 C18         8.6955   -1.1600    3.6252 C.ar      1 <0>        -0.0745
     26 C19         8.0064   -0.5729    4.6639 C.ar      1 <0>        -0.1907
     27 H2         -3.5957    2.5068   -0.8667 H         1 <0>         0.0709
     28 H3         -3.5813    2.5117    0.9132 H         1 <0>         0.0710
     29 H4         -4.4231    3.8053    0.0264 H         1 <0>         0.1106
     30 H5         -2.1277    1.3032    0.0033 H         1 <0>         0.1393
     31 H6         -0.0026    0.0637   -0.0012 H         1 <0>         0.1403
     32 H7          0.0235    4.9954   -0.0128 H         1 <0>         0.1520
     33 H8          3.3404    5.7235   -0.0409 H         1 <0>         0.1122
     34 H9          1.7935    5.6510   -0.9185 H         1 <0>         0.0730
     35 H10         1.8076    5.6553    0.8614 H         1 <0>         0.0725
     36 H11         2.3263    0.0473   -0.3715 H         1 <0>         0.0962
     37 H12         3.2104    1.5588   -0.6909 H         1 <0>         0.1095
     38 H13         2.5846    1.4583    2.0613 H         1 <0>         0.2307
     39 H14         3.2006    1.4588    3.8148 H         1 <0>         0.1594
     40 H15         6.4707   -0.7663    1.1234 H         1 <0>         0.1926
     41 H16         8.6916   -1.6902    1.5518 H         1 <0>         0.1365
     42 H17         9.6783   -1.5719    3.8006 H         1 <0>         0.1326
     43 H18         8.4482   -0.5254    5.6483 H         1 <0>         0.1348
@<TRIPOS>BOND
     1    1    2 1
     2    1   27 1
     3    1   28 1
     4    1   29 1
     5    2    3 1
     6    3    8 ar
     7    3    4 ar
     8    4    5 ar
     9    4   30 1
    10    5    6 ar
    11    5   31 1
    12    6    7 ar
    13    6   11 1
    14    7    8 ar
    15    7    9 1
    16    8   32 1
    17    9   10 1
    18   10   33 1
    19   10   34 1
    20   10   35 1
    21   11   12 1
    22   11   36 1
    23   11   37 1
    24   12   13 am
    25   12   38 1
    26   13   14 2
    27   13   15 1
    28   15   22 1
    29   15   16 2
    30   16   17 1
    31   16   39 1
    32   17   18 2
    33   17   19 am
    34   19   20 1
    35   19   21 1
    36   21   26 ar
    37   21   22 ar
    38   22   23 ar
    39   23   24 ar
    40   23   40 1
    41   24   25 ar
    42   24   41 1
    43   25   26 ar
    44   25   42 1
    45   26   43 1
@<TRIPOS>MOLECULE
ZINC00228979
   41    43     0     0     0
SMALL
USER_CHARGES

@<TRIPOS>ATOM
      1 C1          8.2426    7.2990   -0.7572 C.3       1 <0>        -0.0673
      2 O1          6.9034    7.7452   -0.5347 O.3       1 <0>        -0.1956
      3 C2          5.9602    6.7878   -0.3267 C.ar      1 <0>         0.0791
      4 C3          6.3170    5.4525   -0.3369 C.ar      1 <0>        -0.1904
      5 C4          5.3452    4.4715   -0.1228 C.ar      1 <0>        -0.0644
      6 C5          4.0166    4.8451    0.0952 C.ar      1 <0>        -0.1850
      7 C6          3.6694    6.1795    0.1096 C.ar      1 <0>        -0.1188
      8 C7          4.6345    7.1532   -0.1030 C.ar      1 <0>         0.0562
      9 O2          4.2858    8.4670   -0.0934 O.3       1 <0>        -0.2723
     10 C8          5.7197    3.0457   -0.1330 C.2       1 <0>        -0.1127
     11 N1          4.7989    2.1333   -0.2015 N.2       1 <0>         0.0266
     12 N2          3.5329    2.4524   -0.7097 N.am      1 <0>        -0.3433
     13 C9          2.5405    1.5415   -0.6672 C.2       1 <0>         0.3838
     14 O3          2.7440    0.4419   -0.1876 O.2       1 <0>        -0.2973
     15 C10         1.2109    1.8766   -1.2009 C.2       1 <0>        -0.1687
     16 C11         0.0994    1.0555   -1.2290 C.2       1 <0>        -0.1436
     17 C12        -0.9127    1.8216   -1.8352 C.2       1 <0>        -0.0760
     18 N3         -0.4022    3.0012   -2.1195 N.2       1 <0>        -0.0697
     19 N4          0.8310    3.0616   -1.7660 N.pl3     1 <0>        -0.1112
     20 H1          1.4248    3.8572   -1.8863 H         1 <0>         0.2802
     21 C13        -2.3050    1.3811   -2.1024 C.ar      1 <0>        -0.0028
     22 C14        -2.7118    0.0966   -1.7487 C.ar      1 <0>        -0.1116
     23 C15        -4.0089   -0.3061   -1.9947 C.ar      1 <0>        -0.1286
     24 C16        -4.9010    0.5594   -2.6016 C.ar      1 <0>        -0.1229
     25 C17        -4.5008    1.8341   -2.9596 C.ar      1 <0>        -0.1314
     26 C18        -3.2077    2.2489   -2.7130 C.ar      1 <0>        -0.1037
     27 H2          8.2714    6.6625   -1.6415 H         1 <0>         0.0670
     28 H3          8.8924    8.1610   -0.9086 H         1 <0>         0.1156
     29 H4          8.5857    6.7332    0.1090 H         1 <0>         0.0722
     30 H5          7.3445    5.1680   -0.5095 H         1 <0>         0.1455
     31 H6          3.2624    4.0890    0.2566 H         1 <0>         0.1524
     32 H7          2.6429    6.4673    0.2827 H         1 <0>         0.1497
     33 H8          4.0285    8.8120   -0.9594 H         1 <0>         0.2287
     34 H9          6.7601    2.7603   -0.0834 H         1 <0>         0.1870
     35 H10         3.3706    3.3290   -1.0920 H         1 <0>         0.2205
     36 H11         0.0252    0.0407   -0.8670 H         1 <0>         0.1820
     37 H12        -2.0146   -0.5816   -1.2792 H         1 <0>         0.1342
     38 H13        -4.3266   -1.3002   -1.7169 H         1 <0>         0.1320
     39 H14        -5.9138    0.2388   -2.7964 H         1 <0>         0.1293
     40 H15        -5.2014    2.5059   -3.4332 H         1 <0>         0.1312
     41 H16        -2.8963    3.2445   -2.9926 H         1 <0>         0.1444
@<TRIPOS>BOND
     1    1    2 1
     2    1   27 1
     3    1   28 1
     4    1   29 1
     5    2    3 1
     6    3    8 ar
     7    3    4 ar
     8    4    5 ar
     9    4   30 1
    10    5    6 ar
    11    5   10 1
    12    6    7 ar
    13    6   31 1
    14    7    8 ar
    15    7   32 1
    16    8    9 1
    17    9   33 1
    18   10   11 2
    19   10   34 1
    20   11   12 1
    21   12   13 am
    22   12   35 1
    23   13   14 2
    24   13   15 1
    25   15   19 1
    26   15   16 2
    27   16   17 1
    28   16   36 1
    29   17   18 2
    30   17   21 1
    31   18   19 1
    32   19   20 1
    33   21   26 ar
    34   21   22 ar
    35   22   23 ar
    36   22   37 1
    37   23   24 ar
    38   23   38 1
    39   24   25 ar
    40   24   39 1
    41   25   26 ar
    42   25   40 1
    43   26   41 1
@<TRIPOS>MOLECULE
ZINC00229628
   41    43     0     0     0
SMALL
USER_CHARGES

@<TRIPOS>ATOM
      1 C1         -0.5057    1.4121   -0.7928 C.3       1 <0>        -0.2108
      2 C2         -0.3486   -0.0877   -0.5342 C.3       1 <0>        -0.0197
      3 O1         -1.4221   -0.5437    0.2914 O.3       1 <0>        -0.1980
      4 C3         -1.4321   -1.8639    0.6179 C.ar      1 <0>         0.0814
      5 C4         -0.4324   -2.6981    0.1539 C.ar      1 <0>        -0.1909
      6 C5         -0.4459   -4.0540    0.4912 C.ar      1 <0>        -0.0680
      7 C6         -1.4700   -4.5599    1.2960 C.ar      1 <0>        -0.1765
      8 C7         -2.4638   -3.7215    1.7551 C.ar      1 <0>        -0.1199
      9 C8         -2.4469   -2.3741    1.4246 C.ar      1 <0>         0.0556
     10 O2         -3.4261   -1.5510    1.8844 O.3       1 <0>        -0.2722
     11 C9          0.6179   -4.9483   -0.0003 C.2       1 <0>        -0.1116
     12 N1          0.4640   -6.2358    0.0626 N.2       1 <0>         0.0250
     13 N2         -0.8237   -6.7877    0.0717 N.am      1 <0>        -0.3384
     14 C10        -0.9883   -8.1108    0.2688 C.2       1 <0>         0.3837
     15 O3         -0.0187   -8.8259    0.4390 O.2       1 <0>        -0.2945
     16 C11        -2.3407   -8.6905    0.2784 C.2       1 <0>        -0.1692
     17 C12        -2.6693  -10.0193    0.4666 C.2       1 <0>        -0.1344
     18 C13        -4.0752  -10.0687    0.3899 C.2       1 <0>        -0.0430
     19 N3         -4.5040   -8.8414    0.1721 N.2       1 <0>        -0.0594
     20 N4         -3.5194   -8.0195    0.1087 N.pl3     1 <0>        -0.1095
     21 H1         -3.6026   -7.0345   -0.0424 H         1 <0>         0.2838
     22 C14        -4.9165  -11.2771    0.5292 C.2       1 <0>         0.0181
     23 C15        -6.2730  -11.3165    0.4595 C.2       1 <0>        -0.1796
     24 C16        -6.6502  -12.6625    0.6433 C.2       1 <0>        -0.2225
     25 C17        -5.5173  -13.3686    0.8226 C.2       1 <0>        -0.0906
     26 O4         -4.4715  -12.5282    0.7530 O.3       1 <0>        -0.0488
     27 H2          0.3132    1.7599   -1.4226 H         1 <0>         0.0892
     28 H3         -1.4548    1.5966   -1.2961 H         1 <0>         0.0888
     29 H4         -0.4873    1.9483    0.1560 H         1 <0>         0.0934
     30 H5         -0.3669   -0.6239   -1.4830 H         1 <0>         0.0722
     31 H6          0.6005   -0.2722   -0.0309 H         1 <0>         0.0776
     32 H7          0.3570   -2.3029   -0.4682 H         1 <0>         0.1452
     33 H8         -1.4829   -5.6074    1.5588 H         1 <0>         0.1494
     34 H9         -3.2546   -4.1136    2.3774 H         1 <0>         0.1500
     35 H10        -4.1931   -1.4867    1.2990 H         1 <0>         0.2281
     36 H11         1.5253   -4.5324   -0.4126 H         1 <0>         0.1872
     37 H12        -1.5967   -6.2177   -0.0639 H         1 <0>         0.2151
     38 H13        -1.9929  -10.8439    0.6366 H         1 <0>         0.1903
     39 H14        -6.9343  -10.4789    0.2935 H         1 <0>         0.1662
     40 H15        -7.6572  -13.0529    0.6438 H         1 <0>         0.1572
     41 H16        -5.4592  -14.4334    0.9935 H         1 <0>         0.2003
@<TRIPOS>BOND
     1    1    2 1
     2    1   27 1
     3    1   28 1
     4    1   29 1
     5    2    3 1
     6    2   30 1
     7    2   31 1
     8    3    4 1
     9    4    9 ar
    10    4    5 ar
    11    5    6 ar
    12    5   32 1
    13    6    7 ar
    14    6   11 1
    15    7    8 ar
    16    7   33 1
    17    8    9 ar
    18    8   34 1
    19    9   10 1
    20   10   35 1
    21   11   12 2
    22   11   36 1
    23   12   13 1
    24   13   14 am
    25   13   37 1
    26   14   15 2
    27   14   16 1
    28   16   20 1
    29   16   17 2
    30   17   18 1
    31   17   38 1
    32   18   19 2
    33   18   22 1
    34   19   20 1
    35   20   21 1
    36   22   26 1
    37   22   23 2
    38   23   24 1
    39   23   39 1
    40   24   25 2
    41   24   40 1
    42   25   26 1
    43   25   41 1
@<TRIPOS>MOLECULE
ZINC00230102
   41    43     0     0     0
SMALL
USER_CHARGES

@<TRIPOS>ATOM
      1 C1         -0.0127    1.0858    0.0080 C.3       1 <0>        -0.1338
      2 C2         -0.7181    1.5718    1.2479 C.2       1 <0>        -0.0404
      3 C3         -0.9156    2.8609    1.5848 C.2       1 <0>        -0.2228
      4 C4         -1.6128    2.8650    2.8102 C.2       1 <0>        -0.1757
      5 C5         -1.7969    1.5650    3.1603 C.2       1 <0>         0.0150
      6 O1         -1.2492    0.7914    2.2037 O.3       1 <0>        -0.0479
      7 C6         -2.4798    1.0832    4.3806 C.2       1 <0>        -0.0413
      8 C7         -2.6743   -0.2623    4.7500 C.2       1 <0>        -0.1364
      9 C8         -3.3527   -0.2155    5.9527 C.2       1 <0>        -0.1674
     10 N1         -3.5316    1.1075    6.2461 N.pl3     1 <0>        -0.1096
     11 H1         -3.9977    1.4574    7.0587 H         1 <0>         0.2824
     12 N2         -3.0124    1.8345    5.3236 N.2       1 <0>        -0.0612
     13 C9         -3.7959   -1.3639    6.7589 C.2       1 <0>         0.3899
     14 O2         -3.5704   -2.4974    6.3785 O.2       1 <0>        -0.2920
     15 N3         -4.4516   -1.1601    7.9186 N.am      1 <0>        -0.3368
     16 N4         -4.8736   -2.2535    8.6862 N.2       1 <0>         0.0374
     17 C10        -5.5053   -2.0573    9.8033 C.2       1 <0>        -0.1130
     18 C11        -5.9492   -3.2075   10.6107 C.ar      1 <0>        -0.0445
     19 C12        -6.6295   -3.0001   11.8140 C.ar      1 <0>        -0.1355
     20 C13        -7.0431   -4.0787   12.5665 C.ar      1 <0>        -0.1055
     21 C14        -6.7884   -5.3698   12.1364 C.ar      1 <0>        -0.1986
     22 C15        -6.1149   -5.5905   10.9454 C.ar      1 <0>         0.0654
     23 C16        -5.6966   -4.5132   10.1734 C.ar      1 <0>         0.0851
     24 O3         -5.0408   -4.7261    9.0023 O.3       1 <0>        -0.2503
     25 O4         -5.8688   -6.8616   10.5290 O.3       1 <0>        -0.1951
     26 C17        -6.3328   -7.9207   11.3687 C.3       1 <0>        -0.0653
     27 H2          0.0021   -0.0041    0.0020 H         1 <0>         0.0936
     28 H3          1.0099    1.4631    0.0003 H         1 <0>         0.0961
     29 H4         -0.5399    1.4469   -0.8751 H         1 <0>         0.0963
     30 H5         -0.6009    3.7273    1.0220 H         1 <0>         0.1563
     31 H6         -1.9354    3.7336    3.3651 H         1 <0>         0.1649
     32 H7         -2.3599   -1.1425    4.2088 H         1 <0>         0.1897
     33 H8         -4.6314   -0.2564    8.2218 H         1 <0>         0.1940
     34 H9         -5.7054   -1.0511   10.1409 H         1 <0>         0.1157
     35 H10        -6.8315   -1.9951   12.1540 H         1 <0>         0.1325
     36 H11        -7.5686   -3.9157   13.4959 H         1 <0>         0.1345
     37 H12        -7.1160   -6.2090   12.7320 H         1 <0>         0.1395
     38 H13        -4.0799   -4.7829    9.0942 H         1 <0>         0.2382
     39 H14        -6.0719   -8.8799   10.9214 H         1 <0>         0.1124
     40 H15        -5.8649   -7.8381   12.3497 H         1 <0>         0.0652
     41 H16        -7.4153   -7.8520   11.4755 H         1 <0>         0.0691
@<TRIPOS>BOND
     1    1    2 1
     2    1   27 1
     3    1   28 1
     4    1   29 1
     5    2    6 1
     6    2    3 2
     7    3    4 1
     8    3   30 1
     9    4    5 2
    10    4   31 1
    11    5    6 1
    12    5    7 1
    13    7   12 2
    14    7    8 1
    15    8    9 2
    16    8   32 1
    17    9   10 1
    18    9   13 1
    19   10   11 1
    20   10   12 1
    21   13   14 2
    22   13   15 am
    23   15   16 1
    24   15   33 1
    25   16   17 2
    26   17   18 1
    27   17   34 1
    28   18   23 ar
    29   18   19 ar
    30   19   20 ar
    31   19   35 1
    32   20   21 ar
    33   20   36 1
    34   21   22 ar
    35   21   37 1
    36   22   23 ar
    37   22   25 1
    38   23   24 1
    39   24   38 1
    40   25   26 1
    41   26   39 1
    42   26   40 1
    43   26   41 1
@<TRIPOS>MOLECULE
ZINC00230102
   41    43     0     0     0
SMALL
USER_CHARGES

@<TRIPOS>ATOM
      1 C1          0.0324    1.0866    0.0337 C.3       1 <0>        -0.1354
      2 C2         -0.6812    1.5724    1.2690 C.2       1 <0>        -0.0339
      3 C3         -0.8791    2.8615    1.6058 C.2       1 <0>        -0.2150
      4 C4         -1.5852    2.8654    2.8261 C.2       1 <0>        -0.2075
      5 C5         -1.7739    1.5654    3.1735 C.2       1 <0>         0.0071
      6 O1         -1.2204    0.7919    2.2201 O.3       1 <0>        -0.0352
      7 C6         -2.4664    1.0834    4.3883 C.2       1 <0>        -0.0613
      8 C7         -2.6657   -0.2621    4.7549 C.2       1 <0>        -0.1483
      9 C8         -3.3527   -0.2155    5.9527 C.2       1 <0>        -0.1536
     10 N1         -3.5397    1.1074    6.2415 N.2       1 <0>        -0.1142
     11 H1         -3.0274    2.8344    5.3125 H         1 <0>         0.2879
     12 N2         -3.0174    1.8345    5.3208 N.pl3     1 <0>        -0.0414
     13 C9         -3.7959   -1.3639    6.7589 C.2       1 <0>         0.4076
     14 O2         -3.5704   -2.4974    6.3785 O.2       1 <0>        -0.3105
     15 N3         -4.4516   -1.1601    7.9186 N.am      1 <0>        -0.3233
     16 N4         -4.8736   -2.2535    8.6862 N.2       1 <0>         0.0331
     17 C10        -5.5053   -2.0573    9.8033 C.2       1 <0>        -0.1205
     18 C11        -5.9492   -3.2075   10.6107 C.ar      1 <0>        -0.0391
     19 C12        -6.6295   -3.0001   11.8140 C.ar      1 <0>        -0.1370
     20 C13        -7.0431   -4.0787   12.5665 C.ar      1 <0>        -0.1065
     21 C14        -6.7884   -5.3698   12.1364 C.ar      1 <0>        -0.2018
     22 C15        -6.1149   -5.5905   10.9454 C.ar      1 <0>         0.0641
     23 C16        -5.6966   -4.5132   10.1734 C.ar      1 <0>         0.0830
     24 O3         -5.0408   -4.7261    9.0023 O.3       1 <0>        -0.2498
     25 O4         -5.8688   -6.8616   10.5290 O.3       1 <0>        -0.1960
     26 C17        -6.3328   -7.9207   11.3687 C.3       1 <0>        -0.0648
     27 H2          0.0455   -0.0034    0.0267 H         1 <0>         0.0971
     28 H3          1.0557    1.4622    0.0339 H         1 <0>         0.0986
     29 H4         -0.4878    1.4494   -0.8528 H         1 <0>         0.0988
     30 H5         -0.5589    3.7280    1.0462 H         1 <0>         0.1594
     31 H6         -1.9104    3.7340    3.3795 H         1 <0>         0.1476
     32 H7         -2.3490   -1.1423    4.2149 H         1 <0>         0.1890
     33 H8         -4.6314   -0.2564    8.2218 H         1 <0>         0.2193
     34 H9         -5.7054   -1.0511   10.1409 H         1 <0>         0.1180
     35 H10        -6.8315   -1.9951   12.1540 H         1 <0>         0.1326
     36 H11        -7.5686   -3.9157   13.4959 H         1 <0>         0.1328
     37 H12        -7.1160   -6.2090   12.7320 H         1 <0>         0.1377
     38 H13        -4.0799   -4.7829    9.0942 H         1 <0>         0.2374
     39 H14        -6.0719   -8.8799   10.9214 H         1 <0>         0.1108
     40 H15        -5.8649   -7.8381   12.3497 H         1 <0>         0.0646
     41 H16        -7.4153   -7.8520   11.4755 H         1 <0>         0.0685
@<TRIPOS>BOND
     1    1    2 1
     2    1   27 1
     3    1   28 1
     4    1   29 1
     5    2    6 1
     6    2    3 2
     7    3    4 1
     8    3   30 1
     9    4    5 2
    10    4   31 1
    11    5    6 1
    12    5    7 1
    13    7    8 2
    14    7   12 1
    15    8   32 1
    16    8    9 1
    17    9   13 1
    18    9   10 2
    19   10   12 1
    20   11   12 1
    21   13   14 2
    22   13   15 am
    23   15   16 1
    24   15   33 1
    25   16   17 2
    26   17   18 1
    27   17   34 1
    28   18   23 ar
    29   18   19 ar
    30   19   20 ar
    31   19   35 1
    32   20   21 ar
    33   20   36 1
    34   21   22 ar
    35   21   37 1
    36   22   23 ar
    37   22   25 1
    38   23   24 1
    39   24   38 1
    40   25   26 1
    41   26   39 1
    42   26   40 1
    43   26   41 1
@<TRIPOS>MOLECULE
ZINC00230801
   44    46     0     0     0
SMALL
USER_CHARGES

@<TRIPOS>ATOM
      1 C1         -1.3520    4.8379    0.0401 C.3       1 <0>        -0.1647
      2 C2         -0.5321    3.5735    0.0256 C.2       1 <0>         0.0299
      3 C3          0.8309    3.5224    0.0126 C.2       1 <0>        -0.2152
      4 C4          1.1959    2.0939    0.0019 C.ar      1 <0>        -0.0433
      5 C5          2.4067    1.4056   -0.0125 C.ar      1 <0>        -0.1099
      6 C6          2.4068    0.0236   -0.0208 C.ar      1 <0>         0.0471
      7 C7          1.2039   -0.6764   -0.0135 C.ar      1 <0>        -0.1363
      8 C8          0.0021   -0.0041    0.0020 C.ar      1 <0>        -0.1212
      9 C9         -0.0168    1.3870    0.0097 C.ar      1 <0>        -0.0004
     10 N1         -1.0378    2.3172    0.0189 N.pl3     1 <0>        -0.1523
     11 C10        -2.4660    1.9909    0.0234 C.3       1 <0>         0.0710
     12 C11        -2.9497    1.8723    1.4457 C.2       1 <0>        -0.0926
     13 C12        -3.4403    2.8752    2.1960 C.2       1 <0>        -0.1919
     14 C13        -3.7717    2.3214    3.4539 C.2       1 <0>        -0.2213
     15 C14        -3.4562    1.0149    3.3998 C.2       1 <0>        -0.0843
     16 O1         -2.9588    0.7485    2.1811 O.3       1 <0>        -0.0477
     17 O2          3.5855   -0.6541   -0.0357 O.3       1 <0>        -0.2907
     18 C15         1.7534    4.6655    0.0090 C.2       1 <0>         0.3777
     19 O3          2.1253    5.1438   -1.0462 O.2       1 <0>        -0.3701
     20 N2          2.1879    5.1845    1.1745 N.am      1 <0>        -0.3788
     21 C16         3.1079    6.3245    1.1709 C.3       1 <0>         0.0431
     22 H1          3.7867    6.2410    0.3221 H         1 <0>         0.1232
     23 C17         2.3088    7.6244    1.0589 C.3       1 <0>        -0.2249
     24 C18         3.9152    6.3324    2.4706 C.3       1 <0>        -0.0176
     25 O4          3.0373    6.5586    3.5752 O.3       1 <0>        -0.3581
     26 H2         -1.5596    5.1481   -0.9840 H         1 <0>         0.1010
     27 H3         -2.2914    4.6558    0.5622 H         1 <0>         0.0809
     28 H4         -0.7980    5.6243    0.5527 H         1 <0>         0.1074
     29 H5          3.3401    1.9488   -0.0174 H         1 <0>         0.1457
     30 H6          1.2129   -1.7564   -0.0198 H         1 <0>         0.1406
     31 H7         -0.9258   -0.5567    0.0079 H         1 <0>         0.1319
     32 H8         -3.0206    2.7800   -0.4844 H         1 <0>         0.1227
     33 H9         -2.6242    1.0448   -0.4943 H         1 <0>         0.1174
     34 H10        -3.5602    3.9053    1.8945 H         1 <0>         0.1558
     35 H11        -4.1932    2.8473    4.2978 H         1 <0>         0.1589
     36 H12        -3.5819    0.3011    4.2005 H         1 <0>         0.2013
     37 H13         3.9182   -0.8451   -0.9234 H         1 <0>         0.2232
     38 H14         1.8913    4.8031    2.0157 H         1 <0>         0.2367
     39 H15         2.9934    8.4726    1.0563 H         1 <0>         0.0758
     40 H16         1.7337    7.6188    0.1330 H         1 <0>         0.0892
     41 H17         1.6301    7.7080    1.9077 H         1 <0>         0.0903
     42 H18         4.4144    5.3714    2.5941 H         1 <0>         0.0677
     43 H19         4.6607    7.1266    2.4304 H         1 <0>         0.0703
     44 H20         3.4819    6.5763    4.4338 H         1 <0>         0.2126
@<TRIPOS>BOND
     1    1    2 1
     2    1   26 1
     3    1   27 1
     4    1   28 1
     5    2   10 1
     6    2    3 2
     7    3    4 1
     8    3   18 1
     9    4    9 ar
    10    4    5 ar
    11    5    6 ar
    12    5   29 1
    13    6    7 ar
    14    6   17 1
    15    7    8 ar
    16    7   30 1
    17    8    9 ar
    18    8   31 1
    19    9   10 1
    20   10   11 1
    21   11   12 1
    22   11   32 1
    23   11   33 1
    24   12   16 1
    25   12   13 2
    26   13   14 1
    27   13   34 1
    28   14   15 2
    29   14   35 1
    30   15   16 1
    31   15   36 1
    32   17   37 1
    33   18   19 2
    34   18   20 am
    35   20   21 1
    36   20   38 1
    37   21   22 1
    38   21   23 1
    39   21   24 1
    40   23   39 1
    41   23   40 1
    42   23   41 1
    43   24   25 1
    44   24   42 1
    45   24   43 1
    46   25   44 1
@<TRIPOS>MOLECULE
ZINC00232114
   42    44     0     0     0
SMALL
USER_CHARGES

@<TRIPOS>ATOM
      1 C1          6.0771   -6.1865    0.2608 C.ar      1 <0>        -0.1215
      2 C2          5.2800   -6.0420    1.3808 C.ar      1 <0>        -0.1235
      3 C3          4.0591   -5.4011    1.2823 C.ar      1 <0>        -0.1123
      4 C4          3.6356   -4.9044    0.0638 C.ar      1 <0>        -0.1132
      5 C5          4.4304   -5.0535   -1.0573 C.ar      1 <0>        -0.1176
      6 C6          5.6532   -5.6905   -0.9579 C.ar      1 <0>        -0.1221
      7 C7          2.3047   -4.2057   -0.0435 C.3       1 <0>         0.0685
      8 H1          1.6776   -4.4865    0.8026 H         1 <0>         0.1312
      9 C8          2.5217   -2.6912   -0.0369 C.3       1 <0>        -0.0201
     10 N1          1.2238   -2.0119   -0.0209 N.pl3     1 <0>        -0.3402
     11 C9          1.1661   -0.6188   -0.0124 C.2       1 <0>         0.1612
     12 N2          0.0021   -0.0041    0.0020 N.2       1 <0>        -0.2931
     13 C10        -0.0159    1.3218    0.0093 C.2       1 <0>        -0.0642
     14 S1          1.6785    1.6945   -0.0049 S.3       1 <0>         0.2646
     15 N3          2.2751    0.0901   -0.0192 N.2       1 <0>        -0.3264
     16 N4         -1.0994    2.1809    0.0194 N.pl3     1 <0>        -0.1406
     17 C11        -1.9963    1.9100   -1.1113 C.3       1 <0>        -0.0639
     18 C12        -3.2515    2.7766   -0.9874 C.3       1 <0>        -0.2000
     19 C13        -2.8471    4.2534   -0.9749 C.3       1 <0>         0.0417
     20 C14        -1.8753    4.4986    0.1827 C.3       1 <0>        -0.1497
     21 C15        -0.6600    3.5821    0.0248 C.3       1 <0>        -0.0808
     22 O1         -4.0101    5.0656   -0.8023 O.3       1 <0>        -0.3457
     23 O2          1.6621   -4.5895   -1.2608 O.3       1 <0>        -0.3406
     24 H2          7.0312   -6.6866    0.3379 H         1 <0>         0.1316
     25 H3          5.6112   -6.4295    2.3330 H         1 <0>         0.1326
     26 H4          3.4363   -5.2883    2.1574 H         1 <0>         0.1324
     27 H5          4.0975   -4.6693   -2.0102 H         1 <0>         0.1243
     28 H6          6.2761   -5.8031   -1.8330 H         1 <0>         0.1321
     29 H7          3.0736   -2.3993   -0.9305 H         1 <0>         0.0917
     30 H8          3.0902   -2.4095    0.8494 H         1 <0>         0.1022
     31 H9          0.4046   -2.5313   -0.0162 H         1 <0>         0.2534
     32 H10        -1.4845    2.1435   -2.0449 H         1 <0>         0.0697
     33 H11        -2.2796    0.8575   -1.1061 H         1 <0>         0.1268
     34 H12        -3.7713    2.5338   -0.0606 H         1 <0>         0.1159
     35 H13        -3.9100    2.5867   -1.8350 H         1 <0>         0.0894
     36 H14        -2.3622    4.5072   -1.9176 H         1 <0>         0.0692
     37 H15        -2.3735    4.2829    1.1279 H         1 <0>         0.1148
     38 H16        -1.5505    5.5390    0.1710 H         1 <0>         0.1042
     39 H17         0.0273    3.7440    0.8552 H         1 <0>         0.1160
     40 H18        -0.1546    3.8078   -0.9142 H         1 <0>         0.0759
     41 H19        -4.6702    4.9610   -1.5012 H         1 <0>         0.2126
     42 H20         2.1647   -4.3698   -2.0572 H         1 <0>         0.2139
@<TRIPOS>BOND
     1    1    6 ar
     2    1    2 ar
     3    1   24 1
     4    2    3 ar
     5    2   25 1
     6    3    4 ar
     7    3   26 1
     8    4    5 ar
     9    4    7 1
    10    5    6 ar
    11    5   27 1
    12    6   28 1
    13    7    8 1
    14    7    9 1
    15    7   23 1
    16    9   10 1
    17    9   29 1
    18    9   30 1
    19   10   11 1
    20   10   31 1
    21   11   15 2
    22   11   12 1
    23   12   13 2
    24   13   14 1
    25   13   16 1
    26   14   15 1
    27   16   21 1
    28   16   17 1
    29   17   18 1
    30   17   32 1
    31   17   33 1
    32   18   19 1
    33   18   34 1
    34   18   35 1
    35   19   20 1
    36   19   22 1
    37   19   36 1
    38   20   21 1
    39   20   37 1
    40   20   38 1
    41   21   39 1
    42   21   40 1
    43   22   41 1
    44   23   42 1
@<TRIPOS>MOLECULE
ZINC00232118
   45    47     0     0     0
SMALL
USER_CHARGES

@<TRIPOS>ATOM
      1 C1         -7.3421    0.0624    0.0393 C.ar      1 <0>        -0.1222
      2 C2         -6.8061    0.5101   -1.1537 C.ar      1 <0>        -0.1234
      3 C3         -5.6158    1.2130   -1.1561 C.ar      1 <0>        -0.1135
      4 C4         -4.9617    1.4686    0.0346 C.ar      1 <0>        -0.1126
      5 C5         -5.4950    1.0164    1.2271 C.ar      1 <0>        -0.1172
      6 C6         -6.6875    0.3173    1.2299 C.ar      1 <0>        -0.1222
      7 C7         -3.6641    2.2350    0.0320 C.3       1 <0>         0.0682
      8 H1         -3.6170    2.8667   -0.8550 H         1 <0>         0.1316
      9 C8         -2.4915    1.2523    0.0212 C.3       1 <0>        -0.0199
     10 N1         -1.2300    1.9972    0.0188 N.pl3     1 <0>        -0.3414
     11 C9         -0.0158    1.3120    0.0093 C.2       1 <0>         0.1607
     12 N2          1.1203    1.9773    0.0020 N.2       1 <0>        -0.2960
     13 C10         2.2565    1.2938   -0.0125 C.2       1 <0>        -0.0609
     14 S1          1.6800   -0.3426   -0.0158 S.3       1 <0>         0.2677
     15 N3          0.0021   -0.0041    0.0020 N.2       1 <0>        -0.3302
     16 N4          3.5575    1.7617   -0.0221 N.pl3     1 <0>        -0.1398
     17 C11         3.8039    2.6548    1.1173 C.3       1 <0>        -0.0677
     18 C12         5.2016    3.2660    0.9951 C.3       1 <0>        -0.1602
     19 C13         6.2433    2.1441    0.9675 C.3       1 <0>        -0.1630
     20 C14         5.9356    1.2012   -0.1990 C.3       1 <0>        -0.1046
     21 H2          6.0117    1.7481   -1.1389 H         1 <0>         0.1231
     22 C15         4.5166    0.6499   -0.0423 C.3       1 <0>        -0.0754
     23 C16         6.9369    0.0444   -0.1986 C.3       1 <0>         0.0015
     24 O1          6.7231   -0.7711   -1.3525 O.3       1 <0>        -0.3543
     25 O2         -3.5907    3.0513    1.2026 O.3       1 <0>        -0.3414
     26 H3         -8.2724   -0.4861    0.0412 H         1 <0>         0.1312
     27 H4         -7.3175    0.3111   -2.0839 H         1 <0>         0.1323
     28 H5         -5.1971    1.5628   -2.0881 H         1 <0>         0.1324
     29 H6         -4.9817    1.2123    2.1569 H         1 <0>         0.1246
     30 H7         -7.1064   -0.0322    2.1619 H         1 <0>         0.1317
     31 H8         -2.5475    0.6296   -0.8716 H         1 <0>         0.1014
     32 H9         -2.5386    0.6206    0.9083 H         1 <0>         0.0918
     33 H10        -1.2396    2.9672    0.0237 H         1 <0>         0.2538
     34 H11         3.0589    3.4504    1.1228 H         1 <0>         0.1237
     35 H12         3.7358    2.0870    2.0452 H         1 <0>         0.0697
     36 H13         5.2662    3.8454    0.0741 H         1 <0>         0.1029
     37 H14         5.3902    3.9167    1.8490 H         1 <0>         0.0923
     38 H15         7.2369    2.5728    0.8370 H         1 <0>         0.0889
     39 H16         6.2054    1.5887    1.9046 H         1 <0>         0.0820
     40 H17         4.4450    0.0915    0.8911 H         1 <0>         0.0732
     41 H18         4.2891   -0.0108   -0.8789 H         1 <0>         0.1285
     42 H19         7.9515    0.4421   -0.2177 H         1 <0>         0.0654
     43 H20         6.7986   -0.5555    0.7009 H         1 <0>         0.0596
     44 H21         7.3242   -1.5257   -1.4176 H         1 <0>         0.2138
     45 H22        -3.6271    2.5546    2.0315 H         1 <0>         0.2141
@<TRIPOS>BOND
     1    1    6 ar
     2    1    2 ar
     3    1   26 1
     4    2    3 ar
     5    2   27 1
     6    3    4 ar
     7    3   28 1
     8    4    5 ar
     9    4    7 1
    10    5    6 ar
    11    5   29 1
    12    6   30 1
    13    7    8 1
    14    7    9 1
    15    7   25 1
    16    9   10 1
    17    9   31 1
    18    9   32 1
    19   10   11 1
    20   10   33 1
    21   11   15 2
    22   11   12 1
    23   12   13 2
    24   13   14 1
    25   13   16 1
    26   14   15 1
    27   16   22 1
    28   16   17 1
    29   17   18 1
    30   17   34 1
    31   17   35 1
    32   18   19 1
    33   18   36 1
    34   18   37 1
    35   19   20 1
    36   19   38 1
    37   19   39 1
    38   20   21 1
    39   20   22 1
    40   20   23 1
    41   22   40 1
    42   22   41 1
    43   23   24 1
    44   23   42 1
    45   23   43 1
    46   24   44 1
    47   25   45 1
@<TRIPOS>MOLECULE
ZINC00232244
   42    44     0     0     0
SMALL
USER_CHARGES

@<TRIPOS>ATOM
      1 C1          1.1232    0.2211    4.7212 C.ar      1 <0>        -0.1240
      2 C2          1.4226    1.5161    4.3417 C.ar      1 <0>        -0.1294
      3 C3          0.8216    2.0654    3.2245 C.ar      1 <0>        -0.1177
      4 C4         -0.0784    1.3194    2.4866 C.ar      1 <0>        -0.0886
      5 C5         -0.3817    0.0262    2.8692 C.ar      1 <0>        -0.0984
      6 C6          0.2225   -0.5246    3.9839 C.ar      1 <0>        -0.1294
      7 C7         -0.7334    1.9182    1.2687 C.3       1 <0>         0.1028
      8 H1         -0.6708    3.0052    1.3198 H         1 <0>         0.1294
      9 C8         -0.0173    1.4248    0.0099 C.3       1 <0>        -0.0181
     10 O1          0.0021   -0.0041    0.0020 O.3       1 <0>        -0.3548
     11 N1         -2.1401    1.5118    1.2213 N.pl3     1 <0>        -0.3288
     12 C9         -3.0709    2.2993    0.5449 C.2       1 <0>         0.1641
     13 N2         -4.3361    1.9381    0.4996 N.2       1 <0>        -0.2923
     14 C10        -5.1943    2.7109   -0.1520 C.2       1 <0>        -0.0627
     15 S1         -4.1603    3.9862   -0.7128 S.3       1 <0>         0.2628
     16 N3         -2.6913    3.4116   -0.0478 N.2       1 <0>        -0.3369
     17 N4         -6.5545    2.5441   -0.3363 N.pl3     1 <0>        -0.1401
     18 C11        -6.8464    1.2444   -0.9543 C.3       1 <0>        -0.0640
     19 C12        -8.3610    1.0329   -1.0095 C.3       1 <0>        -0.2000
     20 C13        -8.9997    2.1613   -1.8240 C.3       1 <0>         0.0417
     21 C14        -8.6404    3.5065   -1.1869 C.3       1 <0>        -0.1498
     22 C15        -7.1176    3.6463   -1.1266 C.3       1 <0>        -0.0809
     23 O2        -10.4196    2.0004   -1.8312 O.3       1 <0>        -0.3456
     24 H2          1.5932   -0.2083    5.5936 H         1 <0>         0.1283
     25 H3          2.1263    2.0987    4.9177 H         1 <0>         0.1296
     26 H4          1.0556    3.0772    2.9279 H         1 <0>         0.1297
     27 H5         -1.0882   -0.5551    2.2953 H         1 <0>         0.1391
     28 H6         -0.0112   -1.5365    4.2802 H         1 <0>         0.1300
     29 H7          1.0053    1.8021    0.0021 H         1 <0>         0.0672
     30 H8         -0.5445    1.7859   -0.8732 H         1 <0>         0.0792
     31 H9          0.4417   -0.3872   -0.7693 H         1 <0>         0.2096
     32 H10        -2.4240    0.6948    1.6604 H         1 <0>         0.2537
     33 H11        -6.4397    1.2235   -1.9654 H         1 <0>         0.0695
     34 H12        -6.3901    0.4504   -0.3630 H         1 <0>         0.1269
     35 H13        -8.7666    1.0399    0.0022 H         1 <0>         0.1161
     36 H14        -8.5778    0.0751   -1.4824 H         1 <0>         0.0893
     37 H15        -8.6244    2.1309   -2.8469 H         1 <0>         0.0690
     38 H16        -9.0503    3.5524   -0.1780 H         1 <0>         0.1150
     39 H17        -9.0566    4.3159   -1.7866 H         1 <0>         0.1042
     40 H18        -6.8583    4.5968   -0.6604 H         1 <0>         0.1162
     41 H19        -6.7098    3.6140   -2.1369 H         1 <0>         0.0757
     42 H20       -10.7191    1.1680   -2.2216 H         1 <0>         0.2125
@<TRIPOS>BOND
     1    1    6 ar
     2    1    2 ar
     3    1   24 1
     4    2    3 ar
     5    2   25 1
     6    3    4 ar
     7    3   26 1
     8    4    5 ar
     9    4    7 1
    10    5    6 ar
    11    5   27 1
    12    6   28 1
    13    7    8 1
    14    7    9 1
    15    7   11 1
    16    9   10 1
    17    9   29 1
    18    9   30 1
    19   10   31 1
    20   11   12 1
    21   11   32 1
    22   12   16 2
    23   12   13 1
    24   13   14 2
    25   14   15 1
    26   14   17 1
    27   15   16 1
    28   17   22 1
    29   17   18 1
    30   18   19 1
    31   18   33 1
    32   18   34 1
    33   19   20 1
    34   19   35 1
    35   19   36 1
    36   20   21 1
    37   20   23 1
    38   20   37 1
    39   21   22 1
    40   21   38 1
    41   21   39 1
    42   22   40 1
    43   22   41 1
    44   23   42 1
@<TRIPOS>MOLECULE
ZINC00235408
   38    40     0     0     0
SMALL
USER_CHARGES

@<TRIPOS>ATOM
      1 C1          5.3353    1.7972    7.1992 C.3       1 <0>        -0.0507
      2 O1          4.5441    1.8104    5.9818 O.3       1 <0>        -0.2697
      3 C2          5.1838    1.5146    4.8333 C.2       1 <0>         0.3526
      4 O2          6.3702    1.2529    4.8486 O.2       1 <0>        -0.3650
      5 C3          4.4440    1.5087    3.5578 C.ar      1 <0>        -0.1533
      6 C4          5.1058    1.2020    2.3650 C.ar      1 <0>        -0.0310
      7 C5          4.4114    1.1971    1.1764 C.ar      1 <0>        -0.1778
      8 C6          3.0534    1.4961    1.1611 C.ar      1 <0>         0.1096
      9 C7          2.3927    1.8071    2.3445 C.ar      1 <0>        -0.2232
     10 C8          3.0787    1.8091    3.5380 C.ar      1 <0>        -0.0419
     11 O3          2.3726    1.4897   -0.0122 O.3       1 <0>        -0.1188
     12 C9          1.0725    1.8942    0.0009 C.2       1 <0>        -0.1014
     13 C10        -0.0106    1.0942    0.1452 C.2       1 <0>        -0.0867
     14 N1         -1.1178    1.8811    0.0990 N.pl3     1 <0>        -0.1867
     15 H1         -2.0645    1.5676    0.1726 H         1 <0>         0.2912
     16 N2         -0.7015    3.2078   -0.0697 N.2       1 <0>        -0.0443
     17 C11         0.6135    3.2221   -0.1329 C.2       1 <0>        -0.0336
     18 C12         1.4640    4.4238   -0.3133 C.ar      1 <0>        -0.0550
     19 C13         2.8508    4.2979   -0.3576 C.ar      1 <0>        -0.0802
     20 C14         3.6393    5.4164   -0.5302 C.ar      1 <0>        -0.1685
     21 C15         3.0551    6.6707   -0.6496 C.ar      1 <0>         0.0955
     22 C16         1.6756    6.8051   -0.6012 C.ar      1 <0>        -0.1903
     23 C17         0.8764    5.6870   -0.4335 C.ar      1 <0>         0.1138
     24 O4         -0.4752    5.8169   -0.3855 O.3       1 <0>        -0.2737
     25 O5          3.8375    7.7696   -0.8138 O.3       1 <0>        -0.2897
     26 H2          5.7582    0.8035    7.3470 H         1 <0>         0.0830
     27 H3          6.1413    2.5264    7.1167 H         1 <0>         0.0828
     28 H4          4.7005    2.0518    8.0479 H         1 <0>         0.1020
     29 H5          6.1603    0.9690    2.3762 H         1 <0>         0.1608
     30 H6          4.9219    0.9604    0.2546 H         1 <0>         0.1513
     31 H7          1.3390    2.0434    2.3278 H         1 <0>         0.1487
     32 H8          2.5638    2.0462    4.4573 H         1 <0>         0.1497
     33 H9          0.0028    0.0215    0.2700 H         1 <0>         0.1829
     34 H10         3.3081    3.3243   -0.2609 H         1 <0>         0.1574
     35 H11         4.7140    5.3170   -0.5685 H         1 <0>         0.1455
     36 H12         1.2247    7.7820   -0.6940 H         1 <0>         0.1523
     37 H13        -0.8254    5.9570    0.5049 H         1 <0>         0.2328
     38 H14         4.1046    8.1897    0.0152 H         1 <0>         0.2298
@<TRIPOS>BOND
     1    1    2 1
     2    1   26 1
     3    1   27 1
     4    1   28 1
     5    2    3 1
     6    3    4 2
     7    3    5 1
     8    5   10 ar
     9    5    6 ar
    10    6    7 ar
    11    6   29 1
    12    7    8 ar
    13    7   30 1
    14    8    9 ar
    15    8   11 1
    16    9   10 ar
    17    9   31 1
    18   10   32 1
    19   11   12 1
    20   12   17 1
    21   12   13 2
    22   13   14 1
    23   13   33 1
    24   14   15 1
    25   14   16 1
    26   16   17 2
    27   17   18 1
    28   18   23 ar
    29   18   19 ar
    30   19   20 ar
    31   19   34 1
    32   20   21 ar
    33   20   35 1
    34   21   22 ar
    35   21   25 1
    36   22   23 ar
    37   22   36 1
    38   23   24 1
    39   24   37 1
    40   25   38 1
@<TRIPOS>MOLECULE
ZINC00235408
   38    40     0     0     0
SMALL
USER_CHARGES

@<TRIPOS>ATOM
      1 C1          5.3353    1.7972    7.1992 C.3       1 <0>        -0.0508
      2 O1          4.5441    1.8104    5.9818 O.3       1 <0>        -0.2697
      3 C2          5.1838    1.5146    4.8333 C.2       1 <0>         0.3526
      4 O2          6.3702    1.2529    4.8486 O.2       1 <0>        -0.3653
      5 C3          4.4440    1.5087    3.5578 C.ar      1 <0>        -0.1542
      6 C4          5.1058    1.2020    2.3650 C.ar      1 <0>        -0.0314
      7 C5          4.4114    1.1971    1.1764 C.ar      1 <0>        -0.1798
      8 C6          3.0534    1.4961    1.1611 C.ar      1 <0>         0.1079
      9 C7          2.3927    1.8071    2.3445 C.ar      1 <0>        -0.2231
     10 C8          3.0787    1.8091    3.5380 C.ar      1 <0>        -0.0422
     11 O3          2.3726    1.4897   -0.0122 O.3       1 <0>        -0.1187
     12 C9          1.0725    1.8942    0.0009 C.2       1 <0>        -0.1115
     13 C10        -0.0106    1.0941    0.1446 C.2       1 <0>        -0.1175
     14 N1         -1.1178    1.8810    0.0981 N.2       1 <0>        -0.1036
     15 H1         -1.3000    4.0065   -0.1322 H         1 <0>         0.3019
     16 N2         -0.7015    3.2077   -0.0703 N.pl3     1 <0>        -0.1206
     17 C11         0.6135    3.2221   -0.1329 C.2       1 <0>        -0.0040
     18 C12         1.4640    4.4238   -0.3133 C.ar      1 <0>        -0.0693
     19 C13         2.8508    4.2979   -0.3576 C.ar      1 <0>        -0.0725
     20 C14         3.6393    5.4164   -0.5302 C.ar      1 <0>        -0.1578
     21 C15         3.0551    6.6707   -0.6496 C.ar      1 <0>         0.0970
     22 C16         1.6756    6.8051   -0.6012 C.ar      1 <0>        -0.1761
     23 C17         0.8764    5.6870   -0.4335 C.ar      1 <0>         0.0834
     24 O4         -0.4752    5.8169   -0.3855 O.3       1 <0>        -0.2982
     25 O5          3.8375    7.7696   -0.8138 O.3       1 <0>        -0.2870
     26 H2          5.7582    0.8035    7.3470 H         1 <0>         0.0835
     27 H3          6.1413    2.5264    7.1167 H         1 <0>         0.0821
     28 H4          4.7005    2.0518    8.0479 H         1 <0>         0.1021
     29 H5          6.1603    0.9690    2.3762 H         1 <0>         0.1604
     30 H6          4.9219    0.9604    0.2546 H         1 <0>         0.1507
     31 H7          1.3390    2.0434    2.3278 H         1 <0>         0.1500
     32 H8          2.5638    2.0462    4.4573 H         1 <0>         0.1497
     33 H9          0.0029    0.0219    0.2733 H         1 <0>         0.1965
     34 H10         3.3081    3.3243   -0.2609 H         1 <0>         0.1661
     35 H11         4.7140    5.3170   -0.5685 H         1 <0>         0.1507
     36 H12         1.2247    7.7820   -0.6940 H         1 <0>         0.1552
     37 H13        -0.8254    5.9570    0.5049 H         1 <0>         0.2302
     38 H14         4.1046    8.1897    0.0152 H         1 <0>         0.2332
@<TRIPOS>BOND
     1    1    2 1
     2    1   26 1
     3    1   27 1
     4    1   28 1
     5    2    3 1
     6    3    4 2
     7    3    5 1
     8    5   10 ar
     9    5    6 ar
    10    6    7 ar
    11    6   29 1
    12    7    8 ar
    13    7   30 1
    14    8    9 ar
    15    8   11 1
    16    9   10 ar
    17    9   31 1
    18   10   32 1
    19   11   12 1
    20   12   13 1
    21   12   17 2
    22   13   33 1
    23   13   14 2
    24   14   16 1
    25   15   16 1
    26   16   17 1
    27   17   18 1
    28   18   23 ar
    29   18   19 ar
    30   19   20 ar
    31   19   34 1
    32   20   21 ar
    33   20   35 1
    34   21   22 ar
    35   21   25 1
    36   22   23 ar
    37   22   36 1
    38   23   24 1
    39   24   37 1
    40   25   38 1
@<TRIPOS>MOLECULE
ZINC00240267
   41    43     0     0     0
SMALL
USER_CHARGES

@<TRIPOS>ATOM
      1 C1         -1.1558   -6.8750    1.5712 C.3       1 <0>        -0.0631
      2 O1         -0.7817   -5.4963    1.6065 O.3       1 <0>        -0.2043
      3 C2         -1.6879   -4.5989    1.1368 C.ar      1 <0>         0.1226
      4 C3         -1.3887   -3.2466    1.1425 C.ar      1 <0>        -0.1356
      5 C4         -2.3199   -2.3261    0.6600 C.ar      1 <0>        -0.0613
      6 C5         -3.5511   -2.7725    0.1785 C.ar      1 <0>        -0.1703
      7 C6         -3.8397   -4.1271    0.1713 C.ar      1 <0>         0.1266
      8 C7         -2.9111   -5.0388    0.6519 C.ar      1 <0>        -0.2929
      9 O2         -5.0365   -4.5634   -0.3026 O.3       1 <0>        -0.2057
     10 C8         -5.2701   -5.9729   -0.2755 C.3       1 <0>        -0.0629
     11 C9         -2.0052   -0.8818    0.6645 C.2       1 <0>         0.3535
     12 O3         -0.9341   -0.4944    1.0889 O.2       1 <0>        -0.3514
     13 N1         -2.9060    0.0056    0.1980 N.am      1 <0>        -0.2851
     14 C10        -2.5747    1.3519    0.1126 C.2       1 <0>         0.0837
     15 C11        -1.6750    2.0995    0.9996 C.ar      1 <0>        -0.1309
     16 C12        -0.9155    1.7617    2.1203 C.ar      1 <0>        -0.0317
     17 C13        -0.1601    2.7172    2.7404 C.ar      1 <0>        -0.1666
     18 C14        -0.1429    4.0196    2.2610 C.ar      1 <0>        -0.0849
     19 C15        -0.8859    4.3724    1.1553 C.ar      1 <0>        -0.1400
     20 C16        -1.6625    3.4168    0.5092 C.ar      1 <0>         0.0539
     21 O4         -2.4687    3.4631   -0.5698 O.3       1 <0>        -0.0804
     22 C17        -3.0198    2.2532   -0.8152 C.2       1 <0>        -0.1337
     23 C18        -3.9438    1.9530   -1.9072 C.2       1 <0>         0.3980
     24 O5         -4.2983    0.8053   -2.1066 O.2       1 <0>        -0.3790
     25 N2         -4.4077    2.9472   -2.6899 N.am      1 <0>        -0.4155
     26 H1         -2.0533   -7.0235    2.1716 H         1 <0>         0.0671
     27 H2         -1.3545   -7.1713    0.5412 H         1 <0>         0.0681
     28 H3         -0.3448   -7.4820    1.9738 H         1 <0>         0.1119
     29 H4         -0.4360   -2.9050    1.5195 H         1 <0>         0.1691
     30 H5         -4.2763   -2.0630   -0.1920 H         1 <0>         0.1494
     31 H6         -3.1408   -6.0941    0.6483 H         1 <0>         0.1429
     32 H7         -6.2595   -6.1851   -0.6807 H         1 <0>         0.1118
     33 H8         -4.5149   -6.4780   -0.8777 H         1 <0>         0.0684
     34 H9         -5.2141   -6.3308    0.7525 H         1 <0>         0.0670
     35 H10        -3.7856   -0.2958   -0.0781 H         1 <0>         0.2611
     36 H11        -0.9254    0.7496    2.4970 H         1 <0>         0.1686
     37 H12         0.4274    2.4572    3.6085 H         1 <0>         0.1360
     38 H13         0.4589    4.7647    2.7601 H         1 <0>         0.1355
     39 H14        -0.8655    5.3891    0.7916 H         1 <0>         0.1384
     40 H15        -5.0240    2.7485   -3.4121 H         1 <0>         0.2337
     41 H16        -4.1253    3.8615   -2.5311 H         1 <0>         0.2280
@<TRIPOS>BOND
     1    1    2 1
     2    1   26 1
     3    1   27 1
     4    1   28 1
     5    2    3 1
     6    3    8 ar
     7    3    4 ar
     8    4    5 ar
     9    4   29 1
    10    5    6 ar
    11    5   11 1
    12    6    7 ar
    13    6   30 1
    14    7    8 ar
    15    7    9 1
    16    8   31 1
    17    9   10 1
    18   10   32 1
    19   10   33 1
    20   10   34 1
    21   11   12 2
    22   11   13 am
    23   13   14 1
    24   13   35 1
    25   14   22 2
    26   14   15 1
    27   15   20 ar
    28   15   16 ar
    29   16   17 ar
    30   16   36 1
    31   17   18 ar
    32   17   37 1
    33   18   19 ar
    34   18   38 1
    35   19   20 ar
    36   19   39 1
    37   20   21 1
    38   21   22 1
    39   22   23 1
    40   23   24 2
    41   23   25 am
    42   25   40 1
    43   25   41 1
@<TRIPOS>MOLECULE
ZINC00240282
   39    41     0     0     0
SMALL
USER_CHARGES

@<TRIPOS>ATOM
      1 C1         -4.6524   -8.3441    0.2101 C.3       1 <0>        -0.0508
      2 O1         -4.4119   -6.9124    0.1832 O.3       1 <0>        -0.2663
      3 C2         -3.2253   -6.4827    0.6536 C.2       1 <0>         0.3453
      4 O2         -2.4136   -7.2819    1.0747 O.2       1 <0>        -0.3544
      5 C3         -2.9107   -5.0374    0.6574 C.ar      1 <0>        -0.0877
      6 C4         -1.6807   -4.5919    1.1450 C.ar      1 <0>        -0.0788
      7 C5         -1.3875   -3.2454    1.1480 C.ar      1 <0>        -0.0829
      8 C6         -2.3203   -2.3269    0.6636 C.ar      1 <0>        -0.1014
      9 C7         -3.5524   -2.7717    0.1813 C.ar      1 <0>        -0.1165
     10 C8         -3.8435   -4.1186    0.1729 C.ar      1 <0>        -0.0877
     11 C9         -2.0054   -0.8809    0.6668 C.2       1 <0>         0.3474
     12 O3         -0.9347   -0.4932    1.0913 O.2       1 <0>        -0.3511
     13 N1         -2.9060    0.0060    0.1991 N.am      1 <0>        -0.2852
     14 C10        -2.5748    1.3520    0.1126 C.2       1 <0>         0.0813
     15 C11        -1.6751    2.1004    0.9989 C.ar      1 <0>        -0.1309
     16 C12        -0.9161    1.7638    2.1204 C.ar      1 <0>        -0.0328
     17 C13        -0.1599    2.7197    2.7390 C.ar      1 <0>        -0.1654
     18 C14        -0.1428    4.0216    2.2585 C.ar      1 <0>        -0.0841
     19 C15        -0.8856    4.3734    1.1523 C.ar      1 <0>        -0.1390
     20 C16        -1.6622    3.4172    0.5071 C.ar      1 <0>         0.0543
     21 O4         -2.4677    3.4623   -0.5725 O.3       1 <0>        -0.0794
     22 C17        -3.0196    2.2525   -0.8163 C.2       1 <0>        -0.1317
     23 C18        -3.9441    1.9514   -1.9077 C.2       1 <0>         0.3991
     24 O5         -4.2993    0.8038   -2.1056 O.2       1 <0>        -0.3829
     25 N2         -4.4075    2.9450   -2.6916 N.am      1 <0>        -0.4141
     26 H1         -3.8979   -8.8506   -0.3919 H         1 <0>         0.0845
     27 H2         -4.5977   -8.7025    1.2380 H         1 <0>         0.0838
     28 H3         -5.6420   -8.5540   -0.1957 H         1 <0>         0.1048
     29 H4         -0.9588   -5.3026    1.5195 H         1 <0>         0.1623
     30 H5         -0.4359   -2.9008    1.5248 H         1 <0>         0.1629
     31 H6         -4.2759   -2.0605   -0.1891 H         1 <0>         0.1412
     32 H7         -4.7949   -4.4631   -0.2047 H         1 <0>         0.1546
     33 H8         -3.7855   -0.2958   -0.0771 H         1 <0>         0.2586
     34 H9         -0.9264    0.7522    2.4983 H         1 <0>         0.1672
     35 H10         0.4279    2.4603    3.6071 H         1 <0>         0.1366
     36 H11         0.4588    4.7672    2.7570 H         1 <0>         0.1365
     37 H12        -0.8649    5.3897    0.7874 H         1 <0>         0.1394
     38 H13        -5.0242    2.7458   -3.4134 H         1 <0>         0.2344
     39 H14        -4.1245    3.8593   -2.5340 H         1 <0>         0.2289
@<TRIPOS>BOND
     1    1    2 1
     2    1   26 1
     3    1   27 1
     4    1   28 1
     5    2    3 1
     6    3    4 2
     7    3    5 1
     8    5   10 ar
     9    5    6 ar
    10    6    7 ar
    11    6   29 1
    12    7    8 ar
    13    7   30 1
    14    8    9 ar
    15    8   11 1
    16    9   10 ar
    17    9   31 1
    18   10   32 1
    19   11   12 2
    20   11   13 am
    21   13   14 1
    22   13   33 1
    23   14   22 2
    24   14   15 1
    25   15   20 ar
    26   15   16 ar
    27   16   17 ar
    28   16   34 1
    29   17   18 ar
    30   17   35 1
    31   18   19 ar
    32   18   36 1
    33   19   20 ar
    34   19   37 1
    35   20   21 1
    36   21   22 1
    37   22   23 1
    38   23   24 2
    39   23   25 am
    40   25   38 1
    41   25   39 1
@<TRIPOS>MOLECULE
ZINC00240440
   39    40     0     0     0
SMALL
USER_CHARGES

@<TRIPOS>ATOM
      1 C1         -1.0046    6.9751    5.2736 C.3       1 <0>        -0.0636
      2 O1         -1.8904    7.6130    4.3514 O.3       1 <0>        -0.2090
      3 C2         -2.7583    6.8135    3.6752 C.ar      1 <0>         0.1031
      4 C3         -3.6457    7.3678    2.7648 C.ar      1 <0>        -0.1546
      5 C4         -4.5277    6.5567    2.0780 C.ar      1 <0>        -0.0738
      6 C5         -4.5255    5.1858    2.2990 C.ar      1 <0>        -0.0080
      7 C6         -3.6403    4.6323    3.2145 C.ar      1 <0>        -0.0891
      8 C7         -2.7551    5.4442    3.8962 C.ar      1 <0>        -0.2215
      9 N1         -5.4188    4.3632    1.6036 N.pl3     1 <0>        -0.8224
     10 S1         -5.1573    4.0227    0.0042 S.o2      1 <0>         2.7619
     11 O2         -4.9083    5.2645   -0.6400 O.2       1 <0>        -0.9081
     12 O3         -6.2029    3.1502   -0.4016 O.2       1 <0>        -0.9186
     13 C8         -3.6618    3.0960   -0.0933 C.ar      1 <0>        -0.7766
     14 C9         -3.7062    1.7140   -0.1077 C.ar      1 <0>        -0.0088
     15 C10        -2.5358    0.9848   -0.1840 C.ar      1 <0>        -0.1877
     16 C11        -1.3134    1.6409   -0.2460 C.ar      1 <0>         0.1326
     17 C12        -1.2719    3.0287   -0.2252 C.ar      1 <0>        -0.1543
     18 C13        -2.4462    3.7523   -0.1549 C.ar      1 <0>        -0.0038
     19 N2         -0.1256    0.9048   -0.3235 N.am      1 <0>        -0.3141
     20 C14         0.9226    1.3883   -1.0192 C.2       1 <0>         0.4027
     21 O4          0.8068    2.4168   -1.6559 O.2       1 <0>        -0.3990
     22 O5          2.0981    0.7317   -1.0088 O.3       1 <0>        -0.2764
     23 C15         3.1833    1.3104   -1.7806 C.3       1 <0>        -0.0336
     24 H1         -0.3679    7.7247    5.7436 H         1 <0>         0.1105
     25 H2         -1.5857    6.4606    6.0389 H         1 <0>         0.0686
     26 H3         -0.3845    6.2535    4.7418 H         1 <0>         0.0685
     27 H4         -3.6473    8.4341    2.5931 H         1 <0>         0.1512
     28 H5         -5.2187    6.9885    1.3691 H         1 <0>         0.1591
     29 H6         -3.6412    3.5667    3.3905 H         1 <0>         0.1362
     30 H7         -2.0635    5.0134    4.6050 H         1 <0>         0.1381
     31 H8         -6.1913    3.9925    2.0583 H         1 <0>         0.2504
     32 H9         -4.6571    1.2043   -0.0594 H         1 <0>         0.1536
     33 H10        -2.5711   -0.0946   -0.1959 H         1 <0>         0.1376
     34 H11        -0.3225    3.5418   -0.2684 H         1 <0>         0.1675
     35 H12        -2.4148    4.8318   -0.1436 H         1 <0>         0.1567
     36 H13        -0.0581    0.0449    0.1201 H         1 <0>         0.2443
     37 H14         3.4029    2.3101   -1.4058 H         1 <0>         0.0852
     38 H15         4.0704    0.6841   -1.6864 H         1 <0>         0.1069
     39 H16         2.8912    1.3714   -2.8290 H         1 <0>         0.0880
@<TRIPOS>BOND
     1    1    2 1
     2    1   24 1
     3    1   25 1
     4    1   26 1
     5    2    3 1
     6    3    8 ar
     7    3    4 ar
     8    4    5 ar
     9    4   27 1
    10    5    6 ar
    11    5   28 1
    12    6    7 ar
    13    6    9 1
    14    7    8 ar
    15    7   29 1
    16    8   30 1
    17    9   10 1
    18    9   31 1
    19   10   11 2
    20   10   12 2
    21   10   13 1
    22   13   18 ar
    23   13   14 ar
    24   14   15 ar
    25   14   32 1
    26   15   16 ar
    27   15   33 1
    28   16   17 ar
    29   16   19 1
    30   17   18 ar
    31   17   34 1
    32   18   35 1
    33   19   20 am
    34   19   36 1
    35   20   21 2
    36   20   22 1
    37   22   23 1
    38   23   37 1
    39   23   38 1
    40   23   39 1
@<TRIPOS>MOLECULE
ZINC00241030
   44    46     0     0     0
SMALL
USER_CHARGES

@<TRIPOS>ATOM
      1 C1         -3.6147   11.1570   -3.1789 C.3       1 <0>        -0.0619
      2 O1         -3.3298    9.8198   -2.7633 O.3       1 <0>        -0.2079
      3 C2         -3.7632    8.8163   -3.5721 C.ar      1 <0>         0.0777
      4 C3         -4.4476    9.1151   -4.7411 C.ar      1 <0>        -0.1994
      5 C4         -4.8900    8.0974   -5.5654 C.ar      1 <0>        -0.1662
      6 C5         -4.6453    6.7761   -5.2292 C.ar      1 <0>         0.0284
      7 C6         -3.9626    6.4727   -4.0538 C.ar      1 <0>         0.0704
      8 C7         -3.5202    7.4956   -3.2281 C.ar      1 <0>        -0.1273
      9 N1         -3.7181    5.1369   -3.7089 N.am      1 <0>        -0.3128
     10 C8         -3.7240    4.7633   -2.4140 C.2       1 <0>         0.3124
     11 O2         -3.8604    5.5964   -1.5430 O.2       1 <0>        -0.3644
     12 C9         -3.5612    3.3105   -2.0481 C.3       1 <0>        -0.2079
     13 C10        -3.6034    3.1600   -0.5261 C.3       1 <0>         0.0536
     14 H1         -4.5196    3.6073   -0.1406 H         1 <0>         0.1498
     15 C11        -3.5642    1.6972   -0.1624 C.2       1 <0>         0.2954
     16 O3         -4.6021    1.0828   -0.0338 O.2       1 <0>        -0.3531
     17 N2         -2.3901    1.0664    0.0214 N.am      1 <0>        -0.3036
     18 C12        -1.1839    1.7763    0.0131 C.ar      1 <0>         0.0071
     19 C13         0.0298    1.1081    0.0006 C.ar      1 <0>        -0.1374
     20 C14         1.2119    1.8256   -0.0115 C.ar      1 <0>        -0.1423
     21 C15         1.1900    3.2083   -0.0058 C.ar      1 <0>        -0.1162
     22 C16        -0.0169    3.8843    0.0168 C.ar      1 <0>        -0.1601
     23 C17        -1.2031    3.1718    0.0335 C.ar      1 <0>         0.0711
     24 N3         -2.4392    3.8323    0.0793 N.pl3     1 <0>        -0.3805
     25 O4         -5.0758    5.7752   -6.0442 O.3       1 <0>        -0.2230
     26 C18        -5.7691    6.1596   -7.2331 C.3       1 <0>        -0.0596
     27 H2         -3.1527   11.3422   -4.1487 H         1 <0>         0.0652
     28 H3         -4.6935   11.2905   -3.2590 H         1 <0>         0.0675
     29 H4         -3.2152   11.8581   -2.4462 H         1 <0>         0.1080
     30 H5         -4.6356   10.1447   -5.0075 H         1 <0>         0.1360
     31 H6         -5.4226    8.3328   -6.4750 H         1 <0>         0.1378
     32 H7         -2.9873    7.2634   -2.3179 H         1 <0>         0.1813
     33 H8         -3.5446    4.4810   -4.4021 H         1 <0>         0.2430
     34 H9         -2.6046    2.9464   -2.4229 H         1 <0>         0.1158
     35 H10        -4.3700    2.7309   -2.4931 H         1 <0>         0.1222
     36 H11        -2.3794    0.1067    0.1618 H         1 <0>         0.2439
     37 H12         0.0526    0.0283   -0.0042 H         1 <0>         0.1327
     38 H13         2.1571    1.3033   -0.0259 H         1 <0>         0.1324
     39 H14         2.1173    3.7617   -0.0187 H         1 <0>         0.1326
     40 H15        -0.0332    4.9641    0.0218 H         1 <0>         0.1408
     41 H16        -2.5222    4.7077    0.4889 H         1 <0>         0.2554
     42 H17        -5.1176    6.7794   -7.8493 H         1 <0>         0.0665
     43 H18        -6.0562    5.2681   -7.7906 H         1 <0>         0.1070
     44 H19        -6.6622    6.7247   -6.9663 H         1 <0>         0.0697
@<TRIPOS>BOND
     1    1    2 1
     2    1   27 1
     3    1   28 1
     4    1   29 1
     5    2    3 1
     6    3    8 ar
     7    3    4 ar
     8    4    5 ar
     9    4   30 1
    10    5    6 ar
    11    5   31 1
    12    6    7 ar
    13    6   25 1
    14    7    8 ar
    15    7    9 1
    16    8   32 1
    17    9   10 am
    18    9   33 1
    19   10   11 2
    20   10   12 1
    21   12   13 1
    22   12   34 1
    23   12   35 1
    24   13   14 1
    25   13   24 1
    26   13   15 1
    27   15   16 2
    28   15   17 am
    29   17   18 1
    30   17   36 1
    31   18   23 ar
    32   18   19 ar
    33   19   20 ar
    34   19   37 1
    35   20   21 ar
    36   20   38 1
    37   21   22 ar
    38   21   39 1
    39   22   23 ar
    40   22   40 1
    41   23   24 1
    42   24   41 1
    43   25   26 1
    44   26   42 1
    45   26   43 1
    46   26   44 1
@<TRIPOS>MOLECULE
ZINC00241720
   39    41     0     0     0
SMALL
USER_CHARGES

@<TRIPOS>ATOM
      1 C1          3.1937  -12.9230   -0.5461 C.3       1 <0>        -0.2155
      2 C2          1.7079  -12.5580   -0.5535 C.3       1 <0>        -0.0037
      3 O1          1.5629  -11.1173   -0.4446 O.3       1 <0>        -0.2689
      4 C3          0.3075  -10.6277   -0.4367 C.2       1 <0>         0.3535
      5 O2         -0.6401  -11.3839   -0.5186 O.2       1 <0>        -0.3683
      6 C4          0.0837   -9.1743   -0.3287 C.ar      1 <0>        -0.1363
      7 C5         -1.2182   -8.6645   -0.3204 C.ar      1 <0>        -0.0459
      8 C6         -1.4235   -7.3074   -0.2190 C.ar      1 <0>        -0.1831
      9 C7         -0.3370   -6.4428   -0.1245 C.ar      1 <0>         0.0982
     10 C8          0.9604   -6.9463   -0.1378 C.ar      1 <0>        -0.1484
     11 C9          1.1729   -8.3027   -0.2340 C.ar      1 <0>        -0.0590
     12 N1         -0.5485   -5.0696   -0.0220 N.am      1 <0>        -0.3247
     13 C10         0.2954   -4.3101    0.7043 C.2       1 <0>         0.3562
     14 O3          1.1841   -4.8342    1.3480 O.2       1 <0>        -0.3520
     15 C11         0.1410   -2.8441    0.7185 C.ar      1 <0>        -0.1549
     16 C12        -0.8796   -2.2287   -0.0200 C.ar      1 <0>        -0.0936
     17 C13        -1.0390   -0.8825   -0.0213 C.ar      1 <0>        -0.1058
     18 C14        -0.1763   -0.0433    0.7270 C.ar      1 <0>         0.0600
     19 C15         0.8466   -0.6882    1.4646 C.ar      1 <0>        -0.2887
     20 C16         1.0113   -2.0454    1.4690 C.ar      1 <0>         0.0059
     21 S1          1.6777    0.6800    2.2357 S.3       1 <0>         0.2505
     22 C17         0.6526    1.9766    1.5557 C.2       1 <0>         0.0513
     23 N2         -0.2071    1.3001    0.8250 N.2       1 <0>        -0.2899
     24 N3          0.7402    3.3383    1.7481 N.pl3     1 <0>        -0.3502
     25 H1          3.6471  -12.5814    0.3844 H         1 <0>         0.0865
     26 H2          3.3026  -14.0044   -0.6278 H         1 <0>         0.0883
     27 H3          3.6899  -12.4431   -1.3896 H         1 <0>         0.0855
     28 H4          1.2117  -13.0378    0.2901 H         1 <0>         0.0894
     29 H5          1.2545  -12.8995   -1.4840 H         1 <0>         0.0884
     30 H6         -2.0618   -9.3350   -0.3930 H         1 <0>         0.1564
     31 H7         -2.4289   -6.9129   -0.2125 H         1 <0>         0.1360
     32 H8          1.8013   -6.2722   -0.0684 H         1 <0>         0.1650
     33 H9          2.1798   -8.6932   -0.2398 H         1 <0>         0.1523
     34 H10        -1.3031   -4.6601   -0.4734 H         1 <0>         0.2365
     35 H11        -1.5538   -2.8408   -0.6007 H         1 <0>         0.1259
     36 H12        -1.8365   -0.4425   -0.6016 H         1 <0>         0.1471
     37 H13         1.8048   -2.4967    2.0461 H         1 <0>         0.1632
     38 H14         0.1090    3.9314    1.3115 H         1 <0>         0.2478
     39 H15         1.4332    3.7036    2.3201 H         1 <0>         0.2452
@<TRIPOS>BOND
     1    1    2 1
     2    1   25 1
     3    1   26 1
     4    1   27 1
     5    2    3 1
     6    2   28 1
     7    2   29 1
     8    3    4 1
     9    4    5 2
    10    4    6 1
    11    6   11 ar
    12    6    7 ar
    13    7    8 ar
    14    7   30 1
    15    8    9 ar
    16    8   31 1
    17    9   10 ar
    18    9   12 1
    19   10   11 ar
    20   10   32 1
    21   11   33 1
    22   12   13 am
    23   12   34 1
    24   13   14 2
    25   13   15 1
    26   15   20 ar
    27   15   16 ar
    28   16   17 ar
    29   16   35 1
    30   17   18 ar
    31   17   36 1
    32   18   23 1
    33   18   19 ar
    34   19   20 ar
    35   19   21 1
    36   20   37 1
    37   21   22 1
    38   22   23 2
    39   22   24 1
    40   24   38 1
    41   24   39 1
@<TRIPOS>MOLECULE
ZINC00242394
   37    39     0     0     0
SMALL
USER_CHARGES

@<TRIPOS>ATOM
      1 C1          0.4727   -6.3102    1.4072 C.3       1 <0>        -0.1768
      2 C2          0.5776   -5.0078    0.6562 C.ar      1 <0>        -0.0931
      3 C3          1.7371   -4.6892   -0.0380 C.ar      1 <0>        -0.0615
      4 C4          1.7942   -3.4800   -0.7171 C.ar      1 <0>        -0.1476
      5 C5          0.7045   -2.6355   -0.6829 C.ar      1 <0>        -0.0498
      6 N1         -0.3912   -2.9695   -0.0097 N.ar      1 <0>         0.1344
      7 C6         -0.4751   -4.1175    0.6546 C.ar      1 <0>        -0.0006
      8 C7         -1.4556   -2.1093    0.0046 C.2       1 <0>         0.0098
      9 C8         -1.2549   -0.7528    0.0100 C.2       1 <0>        -0.3344
     10 S1         -2.9328   -0.1412    0.0372 S.3       1 <0>         0.1669
     11 C9         -3.7689   -1.7192    0.0288 C.2       1 <0>         0.2147
     12 O1         -4.9637   -1.9541    0.0389 O.2       1 <0>        -0.3030
     13 N2         -2.7299   -2.5865    0.0142 N.2       1 <0>        -0.4050
     14 C10         0.0021   -0.0041    0.0020 C.2       1 <0>        -0.0869
     15 N3         -0.0156    1.2983    0.0092 N.2       1 <0>         0.0345
     16 N4          1.1880    2.0153    0.0015 N.am      1 <0>        -0.3315
     17 C11         1.1698    3.3629    0.0089 C.2       1 <0>         0.3583
     18 O2          0.1087    3.9564    0.0223 O.2       1 <0>        -0.2972
     19 C12         2.4417    4.1205    0.0009 C.ar      1 <0>        -0.0863
     20 C13         3.6733    3.4575   -0.0085 C.ar      1 <0>        -0.1764
     21 C14         4.8354    4.2039   -0.0206 C.ar      1 <0>        -0.0490
     22 N5          4.7938    5.5215   -0.0131 N.ar      1 <0>        -0.1492
     23 C15         3.6551    6.1856    0.0009 C.ar      1 <0>        -0.0484
     24 C16         2.4454    5.5192    0.0084 C.ar      1 <0>        -0.1257
     25 H1          0.8258   -6.1699    2.4288 H         1 <0>         0.1064
     26 H2         -0.5669   -6.6373    1.4238 H         1 <0>         0.1079
     27 H3          1.0834   -7.0652    0.9121 H         1 <0>         0.1000
     28 H4          2.5769   -5.3682   -0.0495 H         1 <0>         0.1641
     29 H5          2.6823   -3.2035   -1.2659 H         1 <0>         0.1716
     30 H6          0.7419   -1.6931   -1.2091 H         1 <0>         0.2105
     31 H7         -1.3787   -4.3572    1.1954 H         1 <0>         0.2261
     32 H8          0.9446   -0.5313   -0.0098 H         1 <0>         0.0925
     33 H9          2.0346    1.5417   -0.0091 H         1 <0>         0.1999
     34 H10         3.7148    2.3783   -0.0101 H         1 <0>         0.1260
     35 H11         5.7912    3.7012   -0.0317 H         1 <0>         0.1611
     36 H12         3.6683    7.2655    0.0069 H         1 <0>         0.1691
     37 H13         1.5163    6.0697    0.0202 H         1 <0>         0.1685
@<TRIPOS>BOND
     1    1    2 1
     2    1   25 1
     3    1   26 1
     4    1   27 1
     5    2    7 ar
     6    2    3 ar
     7    3    4 ar
     8    3   28 1
     9    4    5 ar
    10    4   29 1
    11    5    6 ar
    12    5   30 1
    13    6    7 ar
    14    6    8 1
    15    7   31 1
    16    8   13 1
    17    8    9 2
    18    9   10 1
    19    9   14 1
    20   10   11 1
    21   11   12 2
    22   11   13 1
    23   14   15 2
    24   14   32 1
    25   15   16 1
    26   16   17 am
    27   16   33 1
    28   17   18 2
    29   17   19 1
    30   19   24 ar
    31   19   20 ar
    32   20   21 ar
    33   20   34 1
    34   21   22 ar
    35   21   35 1
    36   22   23 ar
    37   23   24 ar
    38   23   36 1
    39   24   37 1
@<TRIPOS>MOLECULE
ZINC00242784
   41    43     0     0     0
SMALL
USER_CHARGES

@<TRIPOS>ATOM
      1 C1          0.2087    4.2924   -0.6217 C.3       1 <0>        -0.1615
      2 C2          1.3149    3.3286   -0.2772 C.2       1 <0>         0.0979
      3 C3          1.1651    1.9909   -0.0525 C.2       1 <0>        -0.2328
      4 C4          2.5003    1.4574    0.2536 C.2       1 <0>         0.3251
      5 O1          2.7780    0.3014    0.5149 O.2       1 <0>        -0.3626
      6 N1          3.3589    2.4958    0.1857 N.am      1 <0>        -0.1769
      7 N2          2.6323    3.6468   -0.1369 N.pl3     1 <0>        -0.1785
      8 C5          3.2003    4.9874   -0.2996 C.3       1 <0>        -0.0408
      9 C6          4.7385    2.4333    0.4057 C.ar      1 <0>         0.0684
     10 C7          5.6145    3.0245   -0.4955 C.ar      1 <0>        -0.1470
     11 C8          6.9761    2.9663   -0.2720 C.ar      1 <0>        -0.1175
     12 C9          7.4682    2.3101    0.8414 C.ar      1 <0>        -0.1294
     13 C10         6.5990    1.7152    1.7374 C.ar      1 <0>        -0.1135
     14 C11         5.2360    1.7750    1.5230 C.ar      1 <0>        -0.1108
     15 N3         -0.0046    1.2831   -0.0977 N.2       1 <0>        -0.1215
     16 C12        -0.0003    0.0020    0.1396 C.2       1 <0>        -0.0528
     17 C13        -1.2588   -0.7596    0.0910 C.ar      1 <0>        -0.0461
     18 C14        -2.4610   -0.1091   -0.2041 C.ar      1 <0>        -0.0911
     19 C15        -3.6375   -0.8255   -0.2538 C.ar      1 <0>        -0.1545
     20 C16        -3.6343   -2.1902   -0.0016 C.ar      1 <0>         0.0514
     21 C17        -2.4411   -2.8444    0.2988 C.ar      1 <0>         0.0377
     22 C18        -1.2564   -2.1347    0.3454 C.ar      1 <0>        -0.1217
     23 O2         -2.4425   -4.1818    0.5457 O.3       1 <0>        -0.2765
     24 O3         -4.7981   -2.8904   -0.0473 O.3       1 <0>        -0.2788
     25 H1         -0.7394    3.7565   -0.6658 H         1 <0>         0.1295
     26 H2          0.1522    5.0685    0.1415 H         1 <0>         0.0896
     27 H3          0.4133    4.7492   -1.5900 H         1 <0>         0.0905
     28 H4          2.3963    5.7057   -0.4594 H         1 <0>         0.1049
     29 H5          3.7562    5.2579    0.5982 H         1 <0>         0.0952
     30 H6          3.8712    4.9959   -1.1587 H         1 <0>         0.0872
     31 H7          5.2311    3.5333   -1.3676 H         1 <0>         0.1348
     32 H8          7.6576    3.4296   -0.9701 H         1 <0>         0.1343
     33 H9          8.5336    2.2625    1.0117 H         1 <0>         0.1337
     34 H10         6.9864    1.2035    2.6060 H         1 <0>         0.1387
     35 H11         4.5576    1.3108    2.2235 H         1 <0>         0.1548
     36 H12         0.9267   -0.5010    0.3720 H         1 <0>         0.1561
     37 H13        -2.4671    0.9536   -0.3967 H         1 <0>         0.1529
     38 H14        -4.5648   -0.3228   -0.4858 H         1 <0>         0.1414
     39 H15        -0.3310   -2.6408    0.5774 H         1 <0>         0.1493
     40 H16        -2.5719   -4.4098    1.4765 H         1 <0>         0.2196
     41 H17        -5.2642   -2.9343    0.7988 H         1 <0>         0.2209
@<TRIPOS>BOND
     1    1    2 1
     2    1   25 1
     3    1   26 1
     4    1   27 1
     5    2    7 1
     6    2    3 2
     7    3    4 1
     8    3   15 1
     9    4    5 2
    10    4    6 am
    11    6    7 1
    12    6    9 1
    13    7    8 1
    14    8   28 1
    15    8   29 1
    16    8   30 1
    17    9   14 ar
    18    9   10 ar
    19   10   11 ar
    20   10   31 1
    21   11   12 ar
    22   11   32 1
    23   12   13 ar
    24   12   33 1
    25   13   14 ar
    26   13   34 1
    27   14   35 1
    28   15   16 2
    29   16   17 1
    30   16   36 1
    31   17   22 ar
    32   17   18 ar
    33   18   19 ar
    34   18   37 1
    35   19   20 ar
    36   19   38 1
    37   20   21 ar
    38   20   24 1
    39   21   22 ar
    40   21   23 1
    41   22   39 1
    42   23   40 1
    43   24   41 1
@<TRIPOS>MOLECULE
ZINC00243607
   39    41     0     0     0
SMALL
USER_CHARGES

@<TRIPOS>ATOM
      1 C1          5.2106    3.4667    1.2076 C.3       1 <0>        -0.2050
      2 C2          3.9844    2.5922    1.1549 C.2       1 <0>         0.3024
      3 O1          3.3877    2.3266    2.1715 O.2       1 <0>        -0.3412
      4 O2          3.5550    2.1082   -0.0215 O.3       1 <0>        -0.1976
      5 C3          2.3824    1.4217   -0.0151 C.ar      1 <0>         0.0531
      6 C4          2.3930    0.0337    0.0050 C.ar      1 <0>        -0.1036
      7 C5          1.2071   -0.6679    0.0111 C.ar      1 <0>        -0.1059
      8 C6         -0.0115    0.0188   -0.0024 C.ar      1 <0>        -0.0342
      9 C7         -0.0215    1.4172   -0.0222 C.ar      1 <0>        -0.1891
     10 C8          1.1722    2.1132   -0.0282 C.ar      1 <0>         0.0873
     11 O3          1.1663    3.4728   -0.0474 O.3       1 <0>        -0.2030
     12 C9         -0.1097    4.1159   -0.0605 C.3       1 <0>        -0.0638
     13 C10        -1.2791   -0.7280    0.0036 C.2       1 <0>        -0.0027
     14 N1         -1.2677   -2.0312    0.0220 N.2       1 <0>        -0.1539
     15 C11        -2.4467   -2.7257    0.0276 C.ar      1 <0>        -0.0022
     16 C12        -3.4852   -2.3347    0.8788 C.ar      1 <0>        -0.1550
     17 C13        -4.6749   -3.0295    0.8828 C.ar      1 <0>        -0.1136
     18 C14        -4.8420   -4.1269    0.0486 C.ar      1 <0>        -0.0055
     19 C15        -3.8063   -4.5264   -0.8008 C.ar      1 <0>         0.0092
     20 C16        -2.6116   -3.8283   -0.8119 C.ar      1 <0>        -0.1085
     21 N2         -4.2675   -5.6389   -1.5018 N.am      1 <0>        -0.2956
     22 H1         -3.7683   -6.1374   -2.1676 H         1 <0>         0.2698
     23 C17        -5.5241   -5.9034   -1.0978 C.2       1 <0>         0.3903
     24 O4         -6.2170   -6.8128   -1.5145 O.2       1 <0>        -0.3812
     25 N3         -5.8985   -5.0093   -0.1637 N.am      1 <0>        -0.2956
     26 H2         -6.7579   -4.9840    0.2854 H         1 <0>         0.2685
     27 H3          5.6095    3.5941    0.2012 H         1 <0>         0.1001
     28 H4          4.9450    4.4404    1.6191 H         1 <0>         0.1178
     29 H5          5.9642    2.9980    1.8405 H         1 <0>         0.1146
     30 H6          3.3332   -0.4977    0.0155 H         1 <0>         0.1498
     31 H7          1.2185   -1.7477    0.0260 H         1 <0>         0.1616
     32 H8         -0.9599    1.9517   -0.0372 H         1 <0>         0.1412
     33 H9          0.0284    5.1970   -0.0754 H         1 <0>         0.1120
     34 H10        -0.6626    3.8080   -0.9480 H         1 <0>         0.0677
     35 H11        -0.6683    3.8331    0.8317 H         1 <0>         0.0708
     36 H12        -2.2192   -0.1963   -0.0073 H         1 <0>         0.1120
     37 H13        -3.3558   -1.4839    1.5314 H         1 <0>         0.1410
     38 H14        -5.4765   -2.7230    1.5384 H         1 <0>         0.1373
     39 H15        -1.8101   -4.1355   -1.4672 H         1 <0>         0.1506
@<TRIPOS>BOND
     1    1    2 1
     2    1   27 1
     3    1   28 1
     4    1   29 1
     5    2    3 2
     6    2    4 1
     7    4    5 1
     8    5   10 ar
     9    5    6 ar
    10    6    7 ar
    11    6   30 1
    12    7    8 ar
    13    7   31 1
    14    8    9 ar
    15    8   13 1
    16    9   10 ar
    17    9   32 1
    18   10   11 1
    19   11   12 1
    20   12   33 1
    21   12   34 1
    22   12   35 1
    23   13   14 2
    24   13   36 1
    25   14   15 1
    26   15   20 ar
    27   15   16 ar
    28   16   17 ar
    29   16   37 1
    30   17   18 ar
    31   17   38 1
    32   18   25 1
    33   18   19 ar
    34   19   20 ar
    35   19   21 1
    36   20   39 1
    37   21   22 1
    38   21   23 am
    39   23   24 2
    40   23   25 am
    41   25   26 1
@<TRIPOS>MOLECULE
ZINC00244316
   40    42     0     0     0
SMALL
USER_CHARGES

@<TRIPOS>ATOM
      1 C1          1.4035   -8.5511   -3.1857 C.3       1 <0>        -0.2155
      2 C2          2.7511   -8.0705   -2.6437 C.3       1 <0>        -0.0037
      3 O1          2.6373   -6.6855   -2.2226 O.3       1 <0>        -0.2709
      4 C3          3.7444   -6.1068   -1.7171 C.2       1 <0>         0.3562
      5 O2          4.7766   -6.7421   -1.6306 O.2       1 <0>        -0.3717
      6 C4          3.7032   -4.7031   -1.2691 C.ar      1 <0>        -0.1687
      7 C5          4.8512   -4.1010   -0.7443 C.ar      1 <0>        -0.0208
      8 C6          4.8096   -2.7950   -0.3289 C.ar      1 <0>        -0.2244
      9 C7          3.6263   -2.0681   -0.4295 C.ar      1 <0>         0.1345
     10 C8          2.4801   -2.6661   -0.9466 C.ar      1 <0>        -0.2084
     11 C9          2.5162   -3.9704   -1.3683 C.ar      1 <0>        -0.0341
     12 N1          3.5875   -0.7434   -0.0071 N.pl3     1 <0>        -0.3106
     13 C10         2.4477    0.0156   -0.2122 C.2       1 <0>        -0.0187
     14 C11         1.4110    0.1245    0.8263 C.ar      1 <0>        -0.0996
     15 C12         1.5472   -0.5343    2.0501 C.ar      1 <0>        -0.0844
     16 C13         0.5598   -0.4126    3.0025 C.ar      1 <0>        -0.1428
     17 C14        -0.5646    0.3594    2.7501 C.ar      1 <0>        -0.0999
     18 C15        -0.7113    1.0150    1.5458 C.ar      1 <0>        -0.1312
     19 C16         0.2725    0.9053    0.5712 C.ar      1 <0>         0.0816
     20 O3          0.1413    1.5426   -0.6122 O.3       1 <0>        -0.1582
     21 C17         1.0756    1.4564   -1.5722 C.2       1 <0>         0.3603
     22 O4          0.9048    2.0530   -2.6214 O.2       1 <0>        -0.3036
     23 C18         2.2470    0.6952   -1.3998 C.2       1 <0>        -0.0030
     24 N2          3.2050    0.6268   -2.4261 N.pl3     1 <0>        -0.3770
     25 H1          0.6478   -8.4699   -2.4044 H         1 <0>         0.0855
     26 H2          1.1137   -7.9351   -4.0370 H         1 <0>         0.0857
     27 H3          1.4890   -9.5908   -3.5018 H         1 <0>         0.0885
     28 H4          3.5069   -8.1517   -3.4250 H         1 <0>         0.0888
     29 H5          3.0410   -8.6864   -1.7924 H         1 <0>         0.0888
     30 H6          5.7696   -4.6641   -0.6666 H         1 <0>         0.1559
     31 H7          5.6958   -2.3294    0.0765 H         1 <0>         0.1346
     32 H8          1.5627   -2.1009   -1.0195 H         1 <0>         0.1466
     33 H9          1.6280   -4.4323   -1.7734 H         1 <0>         0.1503
     34 H10         4.3590   -0.3513    0.4310 H         1 <0>         0.2408
     35 H11         2.4221   -1.1356    2.2487 H         1 <0>         0.1451
     36 H12         0.6617   -0.9203    3.9503 H         1 <0>         0.1375
     37 H13        -1.3326    0.4481    3.5042 H         1 <0>         0.1398
     38 H14        -1.5911    1.6133    1.3602 H         1 <0>         0.1512
     39 H15         3.0240    1.0362   -3.2866 H         1 <0>         0.2412
     40 H16         4.0471    0.1700   -2.2738 H         1 <0>         0.2343
@<TRIPOS>BOND
     1    1    2 1
     2    1   25 1
     3    1   26 1
     4    1   27 1
     5    2    3 1
     6    2   28 1
     7    2   29 1
     8    3    4 1
     9    4    5 2
    10    4    6 1
    11    6   11 ar
    12    6    7 ar
    13    7    8 ar
    14    7   30 1
    15    8    9 ar
    16    8   31 1
    17    9   10 ar
    18    9   12 1
    19   10   11 ar
    20   10   32 1
    21   11   33 1
    22   12   13 1
    23   12   34 1
    24   13   23 2
    25   13   14 1
    26   14   19 ar
    27   14   15 ar
    28   15   16 ar
    29   15   35 1
    30   16   17 ar
    31   16   36 1
    32   17   18 ar
    33   17   37 1
    34   18   19 ar
    35   18   38 1
    36   19   20 1
    37   20   21 1
    38   21   22 2
    39   21   23 1
    40   23   24 1
    41   24   39 1
    42   24   40 1
@<TRIPOS>MOLECULE
ZINC00249385
   39    40     0     0     0
SMALL
USER_CHARGES

@<TRIPOS>ATOM
      1 C1         -1.3855    5.5537   -2.5582 C.3       1 <0>        -0.1991
      2 C2         -1.4790    4.0284   -2.6347 C.3       1 <0>        -0.1896
      3 C3         -0.7929    3.4224   -1.4376 C.2       1 <0>         0.3230
      4 O1         -0.2796    4.1398   -0.6053 O.2       1 <0>        -0.3238
      5 N1         -0.7497    2.0832   -1.2920 N.am      1 <0>        -0.8308
      6 S1          0.0043    1.4173    0.0234 S.o2      1 <0>         2.7499
      7 O2         -0.1416    0.0087   -0.0948 O.2       1 <0>        -0.9163
      8 O3          1.2748    2.0457    0.1246 O.2       1 <0>        -0.8834
      9 C4         -0.9116    1.9006    1.4489 C.ar      1 <0>        -0.7813
     10 C5         -0.5851    3.0671    2.1160 C.ar      1 <0>         0.0125
     11 C6         -1.3046    3.4517    3.2303 C.ar      1 <0>        -0.1563
     12 C7         -2.3499    2.6596    3.6875 C.ar      1 <0>         0.1234
     13 C8         -2.6716    1.4856    3.0186 C.ar      1 <0>        -0.1935
     14 C9         -1.9518    1.1097    1.9015 C.ar      1 <0>        -0.0125
     15 N2         -3.0766    3.0429    4.8192 N.am      1 <0>        -0.3284
     16 C10        -3.2810    4.3497    5.0780 C.2       1 <0>         0.3495
     17 O4         -2.9180    5.1915    4.2796 O.2       1 <0>        -0.3447
     18 C11        -3.9466    4.7594    6.3326 C.ar      1 <0>        -0.1336
     19 C12        -4.3698    3.7950    7.2489 C.ar      1 <0>        -0.1037
     20 C13        -4.9848    4.1845    8.4208 C.ar      1 <0>        -0.1357
     21 C14        -5.1931    5.5269    8.6833 C.ar      1 <0>        -0.0999
     22 C15        -4.7817    6.4875    7.7765 C.ar      1 <0>        -0.1373
     23 C16        -4.1599    6.1120    6.6037 C.ar      1 <0>        -0.0621
     24 H1         -1.8704    5.9022   -1.6464 H         1 <0>         0.0927
     25 H2         -0.3375    5.8534   -2.5498 H         1 <0>         0.0940
     26 H3         -1.8817    5.9920   -3.4241 H         1 <0>         0.0756
     27 H4         -0.9941    3.6799   -3.5465 H         1 <0>         0.1056
     28 H5         -2.5270    3.7287   -2.6432 H         1 <0>         0.1032
     29 H6         -1.1602    1.5095   -1.9577 H         1 <0>         0.2517
     30 H7          0.2309    3.6801    1.7627 H         1 <0>         0.1736
     31 H8         -1.0520    4.3651    3.7483 H         1 <0>         0.1685
     32 H9         -3.4841    0.8677    3.3713 H         1 <0>         0.1343
     33 H10        -2.2016    0.1972    1.3807 H         1 <0>         0.1469
     34 H11        -3.4335    2.3683    5.4179 H         1 <0>         0.2374
     35 H12        -4.2121    2.7467    7.0429 H         1 <0>         0.1236
     36 H13        -5.3087    3.4396    9.1326 H         1 <0>         0.1351
     37 H14        -5.6788    5.8262    9.6004 H         1 <0>         0.1346
     38 H15        -4.9473    7.5336    7.9875 H         1 <0>         0.1388
     39 H16        -3.8392    6.8628    5.8967 H         1 <0>         0.1583
@<TRIPOS>BOND
     1    1    2 1
     2    1   24 1
     3    1   25 1
     4    1   26 1
     5    2    3 1
     6    2   27 1
     7    2   28 1
     8    3    4 2
     9    3    5 am
    10    5    6 1
    11    5   29 1
    12    6    7 2
    13    6    8 2
    14    6    9 1
    15    9   14 ar
    16    9   10 ar
    17   10   11 ar
    18   10   30 1
    19   11   12 ar
    20   11   31 1
    21   12   13 ar
    22   12   15 1
    23   13   14 ar
    24   13   32 1
    25   14   33 1
    26   15   16 am
    27   15   34 1
    28   16   17 2
    29   16   18 1
    30   18   23 ar
    31   18   19 ar
    32   19   20 ar
    33   19   35 1
    34   20   21 ar
    35   20   36 1
    36   21   22 ar
    37   21   37 1
    38   22   23 ar
    39   22   38 1
    40   23   39 1
@<TRIPOS>MOLECULE
ZINC00250761
   40    41     0     0     0
SMALL
USER_CHARGES

@<TRIPOS>ATOM
      1 C1          6.0270    5.7367    1.7862 C.3       1 <0>        -0.2053
      2 C2          4.9627    4.7885    1.2971 C.2       1 <0>         0.3013
      3 O1          4.8252    4.5938    0.1125 O.2       1 <0>        -0.3421
      4 O2          4.1676    4.1601    2.1773 O.3       1 <0>        -0.1953
      5 C3          3.1586    3.4047    1.6679 C.ar      1 <0>         0.0417
      6 C4          1.8613    3.8967    1.6612 C.ar      1 <0>        -0.0921
      7 C5          0.8352    3.1374    1.1401 C.ar      1 <0>        -0.1701
      8 C6          1.0989    1.8644    0.6276 C.ar      1 <0>        -0.0551
      9 C7          2.4052    1.3692    0.6345 C.ar      1 <0>        -0.1929
     10 C8          3.4299    2.1387    1.1534 C.ar      1 <0>         0.1032
     11 O3          4.7025    1.6598    1.1621 O.3       1 <0>        -0.1986
     12 C9          4.9079    0.3540    0.6190 C.3       1 <0>        -0.0646
     13 C10         0.0022    1.0483    0.0756 C.2       1 <0>        -0.1214
     14 N1         -1.1311    1.6039   -0.2275 N.2       1 <0>         0.0245
     15 N2         -1.1720    2.9539   -0.5998 N.am      1 <0>        -0.3313
     16 C11        -2.3584    3.5695   -0.7731 C.2       1 <0>         0.3582
     17 O4         -3.3935    2.9531   -0.6062 O.2       1 <0>        -0.3205
     18 C12        -2.4015    4.9914   -1.1652 C.ar      1 <0>        -0.1424
     19 C13        -1.2133    5.7031   -1.3518 C.ar      1 <0>        -0.0938
     20 C14        -1.2579    7.0285   -1.7224 C.ar      1 <0>        -0.1631
     21 C15        -2.4824    7.6616   -1.9001 C.ar      1 <0>         0.0976
     22 C16        -3.6665    6.9587   -1.7108 C.ar      1 <0>        -0.1654
     23 C17        -3.6307    5.6316   -1.3453 C.ar      1 <0>        -0.0494
     24 O5         -2.5221    8.9697   -2.2598 O.3       1 <0>        -0.2908
     25 H1          5.9997    5.7831    2.8749 H         1 <0>         0.1006
     26 H2          7.0057    5.3829    1.4621 H         1 <0>         0.1189
     27 H3          5.8454    6.7299    1.3755 H         1 <0>         0.1149
     28 H4          1.6554    4.8786    2.0611 H         1 <0>         0.1484
     29 H5         -0.1729    3.5247    1.1318 H         1 <0>         0.1530
     30 H6          2.6141    0.3875    0.2356 H         1 <0>         0.1457
     31 H7          5.9643    0.0942    0.6873 H         1 <0>         0.1138
     32 H8          4.3186   -0.3702    1.1814 H         1 <0>         0.0690
     33 H9          4.5976    0.3421   -0.4258 H         1 <0>         0.0727
     34 H10         0.1432   -0.0110   -0.0807 H         1 <0>         0.1851
     35 H11        -0.3465    3.4456   -0.7329 H         1 <0>         0.2265
     36 H12        -0.2614    5.2131   -1.2092 H         1 <0>         0.1305
     37 H13        -0.3401    7.5781   -1.8707 H         1 <0>         0.1453
     38 H14        -4.6160    7.4542   -1.8502 H         1 <0>         0.1480
     39 H15        -4.5511    5.0861   -1.1985 H         1 <0>         0.1622
     40 H16        -2.5364    9.5829   -1.5123 H         1 <0>         0.2331
@<TRIPOS>BOND
     1    1    2 1
     2    1   25 1
     3    1   26 1
     4    1   27 1
     5    2    3 2
     6    2    4 1
     7    4    5 1
     8    5   10 ar
     9    5    6 ar
    10    6    7 ar
    11    6   28 1
    12    7    8 ar
    13    7   29 1
    14    8    9 ar
    15    8   13 1
    16    9   10 ar
    17    9   30 1
    18   10   11 1
    19   11   12 1
    20   12   31 1
    21   12   32 1
    22   12   33 1
    23   13   14 2
    24   13   34 1
    25   14   15 1
    26   15   16 am
    27   15   35 1
    28   16   17 2
    29   16   18 1
    30   18   23 ar
    31   18   19 ar
    32   19   20 ar
    33   19   36 1
    34   20   21 ar
    35   20   37 1
    36   21   22 ar
    37   21   24 1
    38   22   23 ar
    39   22   38 1
    40   23   39 1
    41   24   40 1
@<TRIPOS>MOLECULE
ZINC00251956
   39    41     0     0     0
SMALL
USER_CHARGES

@<TRIPOS>ATOM
      1 C1        -11.6999    2.4129   -5.1781 C.3       1 <0>        -0.0653
      2 O1        -10.8490    2.5722   -6.3149 O.3       1 <0>        -0.1980
      3 C2         -9.5314    2.8055   -6.0721 C.ar      1 <0>         0.0659
      4 C3         -9.0710    2.8789   -4.7708 C.ar      1 <0>        -0.1933
      5 C4         -7.7166    3.1187   -4.5249 C.ar      1 <0>        -0.0240
      6 C5         -6.8352    3.2885   -5.5957 C.ar      1 <0>        -0.1098
      7 C6         -7.3009    3.2082   -6.8911 C.ar      1 <0>        -0.1270
      8 C7         -8.6457    2.9700   -7.1348 C.ar      1 <0>         0.0595
      9 O2         -9.1005    2.8975   -8.4138 O.3       1 <0>        -0.2763
     10 C8         -7.2199    3.1986   -3.1392 C.2       1 <0>        -0.1066
     11 N1         -5.9615    3.4214   -2.9127 N.2       1 <0>         0.0123
     12 N2         -5.4895    3.4973   -1.5958 N.am      1 <0>        -0.3338
     13 C9         -4.1828    3.7287   -1.3605 C.2       1 <0>         0.2898
     14 O3         -3.4153    3.8713   -2.2891 O.2       1 <0>        -0.2858
     15 C10        -3.6751    3.8103    0.0560 C.3       1 <0>        -0.0023
     16 N3         -2.2329    4.0674    0.0438 N.pl3     1 <0>        -0.1841
     17 C11        -1.2298    3.1275    0.0297 C.ar      1 <0>        -0.0098
     18 C12        -1.2086    1.7369    0.0172 C.ar      1 <0>        -0.1397
     19 C13        -0.0126    1.0758    0.0080 C.ar      1 <0>        -0.0836
     20 C14         1.1844    1.7806    0.0003 C.ar      1 <0>        -0.1566
     21 C15         1.1907    3.1447    0.0071 C.ar      1 <0>        -0.0438
     22 C16        -0.0221    3.8467    0.0220 C.ar      1 <0>        -0.1167
     23 N4         -0.3275    5.1595    0.0315 N.2       1 <0>        -0.0649
     24 N5         -1.6036    5.3212    0.0442 N.2       1 <0>         0.0500
     25 H1        -11.3573    1.5660   -4.5836 H         1 <0>         0.0681
     26 H2        -11.6697    3.3183   -4.5719 H         1 <0>         0.0648
     27 H3        -12.7219    2.2329   -5.5116 H         1 <0>         0.1120
     28 H4         -9.7564    2.7508   -3.9461 H         1 <0>         0.1376
     29 H5         -5.7886    3.4784   -5.4088 H         1 <0>         0.1643
     30 H6         -6.6178    3.3351   -7.7180 H         1 <0>         0.1512
     31 H7         -9.3868    3.7462   -8.7782 H         1 <0>         0.2280
     32 H8         -7.9032    3.0716   -2.3125 H         1 <0>         0.1148
     33 H9         -6.1032    3.3833   -0.8533 H         1 <0>         0.2045
     34 H10        -3.8718    2.8680    0.5674 H         1 <0>         0.1174
     35 H11        -4.1841    4.6203    0.5783 H         1 <0>         0.1321
     36 H12        -2.1346    1.1811    0.0190 H         1 <0>         0.1292
     37 H13         0.0021   -0.0041    0.0020 H         1 <0>         0.1359
     38 H14         2.1207    1.2425   -0.0115 H         1 <0>         0.1376
     39 H15         2.1275    3.6820    0.0007 H         1 <0>         0.1466
@<TRIPOS>BOND
     1    1    2 1
     2    1   25 1
     3    1   26 1
     4    1   27 1
     5    2    3 1
     6    3    8 ar
     7    3    4 ar
     8    4    5 ar
     9    4   28 1
    10    5    6 ar
    11    5   10 1
    12    6    7 ar
    13    6   29 1
    14    7    8 ar
    15    7   30 1
    16    8    9 1
    17    9   31 1
    18   10   11 2
    19   10   32 1
    20   11   12 1
    21   12   13 am
    22   12   33 1
    23   13   14 2
    24   13   15 1
    25   15   16 1
    26   15   34 1
    27   15   35 1
    28   16   24 1
    29   16   17 1
    30   17   22 ar
    31   17   18 ar
    32   18   19 ar
    33   18   36 1
    34   19   20 ar
    35   19   37 1
    36   20   21 ar
    37   20   38 1
    38   21   22 ar
    39   21   39 1
    40   22   23 1
    41   23   24 2
@<TRIPOS>MOLECULE
ZINC00253966
   41    42     0     0     0
SMALL
USER_CHARGES

@<TRIPOS>ATOM
      1 C1          2.3467    0.8617    0.7479 C.3       1 <0>        -0.2387
      2 C2          1.0255    1.5745    0.6169 C.2       1 <0>         0.3020
      3 O1          0.8949    2.6959    1.0600 O.2       1 <0>        -0.3526
      4 N1         -0.0111    0.9658    0.0074 N.am      1 <0>        -0.3293
      5 C3         -1.2582    1.5883   -0.0351 C.ar      1 <0>         0.0854
      6 C4         -1.3396    2.9723   -0.1522 C.ar      1 <0>        -0.1377
      7 C5         -2.5692    3.5896   -0.2001 C.ar      1 <0>        -0.0901
      8 C6         -3.7366    2.8253   -0.1194 C.ar      1 <0>        -0.1473
      9 C7         -3.6512    1.4356    0.0039 C.ar      1 <0>        -0.0463
     10 C8         -2.4183    0.8244    0.0455 C.ar      1 <0>        -0.1741
     11 C9         -5.0562    3.4838   -0.1648 C.2       1 <0>         0.3661
     12 O2         -6.0712    2.8173   -0.0949 O.2       1 <0>        -0.3231
     13 N2         -5.1368    4.8239   -0.2838 N.am      1 <0>        -0.3314
     14 N3         -6.3897    5.4492   -0.3269 N.2       1 <0>         0.0352
     15 C10        -6.4674    6.7400   -0.4415 C.2       1 <0>        -0.1216
     16 C11        -7.7854    7.3978   -0.4868 C.ar      1 <0>        -0.0372
     17 C12        -7.8728    8.7869   -0.6042 C.ar      1 <0>        -0.1308
     18 C13        -9.1135    9.3970   -0.6510 C.ar      1 <0>         0.0803
     19 C14       -10.2704    8.6329   -0.5709 C.ar      1 <0>        -0.1954
     20 C15       -10.1919    7.2586   -0.4493 C.ar      1 <0>        -0.1244
     21 C16        -8.9569    6.6333   -0.4065 C.ar      1 <0>         0.0731
     22 O3         -8.8814    5.2818   -0.2865 O.3       1 <0>        -0.2630
     23 O4         -9.2004   10.7487   -0.7709 O.3       1 <0>        -0.2130
     24 C17       -10.5125   11.3137   -0.8080 C.3       1 <0>        -0.0623
     25 H1          2.9657    1.0810   -0.1221 H         1 <0>         0.1074
     26 H2          2.8549    1.2014    1.6504 H         1 <0>         0.1206
     27 H3          2.1752   -0.2129    0.8101 H         1 <0>         0.0859
     28 H4          0.1114    0.0966   -0.4053 H         1 <0>         0.2352
     29 H5         -0.4370    3.5627   -0.2101 H         1 <0>         0.1691
     30 H6         -2.6316    4.6635   -0.2959 H         1 <0>         0.1271
     31 H7         -4.5513    0.8420    0.0662 H         1 <0>         0.1606
     32 H8         -2.3516   -0.2494    0.1404 H         1 <0>         0.1362
     33 H9         -4.3273    5.3554   -0.3396 H         1 <0>         0.2080
     34 H10        -5.5661    7.3318   -0.5036 H         1 <0>         0.1166
     35 H11        -6.9739    9.3828   -0.6621 H         1 <0>         0.1458
     36 H12       -11.2362    9.1151   -0.6041 H         1 <0>         0.1377
     37 H13       -11.0958    6.6707   -0.3872 H         1 <0>         0.1446
     38 H14        -8.8506    4.9693    0.6281 H         1 <0>         0.2360
     39 H15       -11.0587   10.9083   -1.6598 H         1 <0>         0.0691
     40 H16       -11.0405   11.0668    0.1130 H         1 <0>         0.0677
     41 H17       -10.4391   12.3968   -0.9056 H         1 <0>         0.1088
@<TRIPOS>BOND
     1    1    2 1
     2    1   25 1
     3    1   26 1
     4    1   27 1
     5    2    3 2
     6    2    4 am
     7    4    5 1
     8    4   28 1
     9    5   10 ar
    10    5    6 ar
    11    6    7 ar
    12    6   29 1
    13    7    8 ar
    14    7   30 1
    15    8    9 ar
    16    8   11 1
    17    9   10 ar
    18    9   31 1
    19   10   32 1
    20   11   12 2
    21   11   13 am
    22   13   14 1
    23   13   33 1
    24   14   15 2
    25   15   16 1
    26   15   34 1
    27   16   21 ar
    28   16   17 ar
    29   17   18 ar
    30   17   35 1
    31   18   19 ar
    32   18   23 1
    33   19   20 ar
    34   19   36 1
    35   20   21 ar
    36   20   37 1
    37   21   22 1
    38   22   38 1
    39   23   24 1
    40   24   39 1
    41   24   40 1
    42   24   41 1
@<TRIPOS>MOLECULE
ZINC00257702
   40    42     0     0     0
SMALL
USER_CHARGES

@<TRIPOS>ATOM
      1 C1          3.5709   -3.6069   -0.0506 C.3       1 <0>        -0.1299
      2 C2          2.8547   -2.2810   -0.0369 C.2       1 <0>        -0.1211
      3 C3          1.4706   -2.0942   -0.0176 C.2       1 <0>        -0.1573
      4 C4          1.2860   -0.7222   -0.0141 C.2       1 <0>        -0.1665
      5 N1          2.5349   -0.1690   -0.0226 N.pl3     1 <0>        -0.1127
      6 H1          2.7308    0.8116   -0.0192 H         1 <0>         0.2780
      7 N2          3.4192   -1.1004   -0.0357 N.2       1 <0>        -0.0780
      8 C5          0.0021   -0.0041    0.0020 C.2       1 <0>         0.3910
      9 O1         -1.0435   -0.6268    0.0087 O.2       1 <0>        -0.3041
     10 N3         -0.0162    1.3436    0.0094 N.am      1 <0>        -0.3344
     11 N4         -1.2389    2.0275    0.0189 N.2       1 <0>        -0.0023
     12 C6         -1.2565    3.3261    0.0261 C.2       1 <0>        -0.0612
     13 C7         -2.5420    4.0452    0.0361 C.2       1 <0>        -0.2225
     14 C8         -2.7192    5.4466    0.0446 C.2       1 <0>        -0.0478
     15 N5         -4.0004    5.6965    0.0520 N.2       1 <0>        -0.0670
     16 N6         -4.7021    4.4858    0.0488 N.pl3     1 <0>        -0.1007
     17 C9         -3.8052    3.4735    0.0329 C.2       1 <0>         0.1540
     18 O2         -4.0884    2.1478    0.0200 O.3       1 <0>        -0.2359
     19 C10        -6.0966    4.3461    0.0546 C.ar      1 <0>         0.0588
     20 C11        -6.6943    3.3048   -0.6426 C.ar      1 <0>        -0.1317
     21 C12        -8.0685    3.1670   -0.6310 C.ar      1 <0>        -0.1156
     22 C13        -8.8496    4.0711    0.0651 C.ar      1 <0>        -0.1281
     23 C14        -8.2576    5.1121    0.7565 C.ar      1 <0>        -0.1199
     24 C15        -6.8835    5.2521    0.7530 C.ar      1 <0>        -0.1165
     25 C16        -1.6185    6.4760    0.0442 C.3       1 <0>        -0.1384
     26 H2          3.7534   -3.9319    0.9736 H         1 <0>         0.0894
     27 H3          2.9557   -4.3469   -0.5625 H         1 <0>         0.0881
     28 H4          4.5217   -3.5009   -0.5730 H         1 <0>         0.0922
     29 H5          0.7069   -2.8578   -0.0095 H         1 <0>         0.1794
     30 H6          0.8172    1.8399    0.0041 H         1 <0>         0.1934
     31 H7         -0.3286    3.8787    0.0247 H         1 <0>         0.1145
     32 H8         -4.1690    1.7543    0.8996 H         1 <0>         0.2520
     33 H9         -6.0850    2.6009   -1.1901 H         1 <0>         0.1586
     34 H10        -8.5338    2.3546   -1.1695 H         1 <0>         0.1392
     35 H11        -9.9243    3.9639    0.0690 H         1 <0>         0.1339
     36 H12        -8.8702    5.8165    1.2995 H         1 <0>         0.1371
     37 H13        -6.4217    6.0653    1.2932 H         1 <0>         0.1517
     38 H14        -1.3587    6.7297   -0.9836 H         1 <0>         0.0971
     39 H15        -1.9583    7.3714    0.5646 H         1 <0>         0.0987
     40 H16        -0.7425    6.0714    0.5511 H         1 <0>         0.0845
@<TRIPOS>BOND
     1    1    2 1
     2    1   26 1
     3    1   27 1
     4    1   28 1
     5    2    7 2
     6    2    3 1
     7    3    4 2
     8    3   29 1
     9    4    5 1
    10    4    8 1
    11    5    6 1
    12    5    7 1
    13    8    9 2
    14    8   10 am
    15   10   11 1
    16   10   30 1
    17   11   12 2
    18   12   13 1
    19   12   31 1
    20   13   17 2
    21   13   14 1
    22   14   15 2
    23   14   25 1
    24   15   16 1
    25   16   17 1
    26   16   19 1
    27   17   18 1
    28   18   32 1
    29   19   24 ar
    30   19   20 ar
    31   20   21 ar
    32   20   33 1
    33   21   22 ar
    34   21   34 1
    35   22   23 ar
    36   22   35 1
    37   23   24 ar
    38   23   36 1
    39   24   37 1
    40   25   38 1
    41   25   39 1
    42   25   40 1
@<TRIPOS>MOLECULE
ZINC00257702
   40    42     0     0     0
SMALL
USER_CHARGES

@<TRIPOS>ATOM
      1 C1          3.5710   -3.6069   -0.0433 C.3       1 <0>        -0.1500
      2 C2          2.8548   -2.2810   -0.0327 C.2       1 <0>        -0.1360
      3 C3          1.4706   -2.0942   -0.0149 C.2       1 <0>        -0.1771
      4 C4          1.2860   -0.7222   -0.0141 C.2       1 <0>        -0.1503
      5 N1          2.5348   -0.1690   -0.0313 N.2       1 <0>        -0.1280
      6 H1          4.4068   -0.9442   -0.0532 H         1 <0>         0.2819
      7 N2          3.4191   -1.1004   -0.0410 N.pl3     1 <0>        -0.0501
      8 C5          0.0021   -0.0041    0.0020 C.2       1 <0>         0.4087
      9 O1         -1.0435   -0.6268    0.0087 O.2       1 <0>        -0.3224
     10 N3         -0.0162    1.3436    0.0094 N.am      1 <0>        -0.3211
     11 N4         -1.2389    2.0275    0.0189 N.2       1 <0>        -0.0057
     12 C6         -1.2565    3.3261    0.0261 C.2       1 <0>        -0.0691
     13 C7         -2.5420    4.0452    0.0361 C.2       1 <0>        -0.2157
     14 C8         -2.7192    5.4466    0.0446 C.2       1 <0>        -0.0490
     15 N5         -4.0004    5.6965    0.0520 N.2       1 <0>        -0.0699
     16 N6         -4.7021    4.4858    0.0488 N.pl3     1 <0>        -0.1036
     17 C9         -3.8052    3.4735    0.0329 C.2       1 <0>         0.1497
     18 O2         -4.0884    2.1478    0.0200 O.3       1 <0>        -0.2356
     19 C10        -6.0966    4.3461    0.0546 C.ar      1 <0>         0.0620
     20 C11        -6.6943    3.3048   -0.6426 C.ar      1 <0>        -0.1324
     21 C12        -8.0685    3.1670   -0.6310 C.ar      1 <0>        -0.1160
     22 C13        -8.8496    4.0711    0.0651 C.ar      1 <0>        -0.1301
     23 C14        -8.2576    5.1121    0.7565 C.ar      1 <0>        -0.1203
     24 C15        -6.8835    5.2521    0.7530 C.ar      1 <0>        -0.1178
     25 C16        -1.6185    6.4760    0.0442 C.3       1 <0>        -0.1381
     26 H2          3.7527   -3.9300    0.9817 H         1 <0>         0.0927
     27 H3          2.9562   -4.3479   -0.5543 H         1 <0>         0.1037
     28 H4          4.5222   -3.5019   -0.5651 H         1 <0>         0.0776
     29 H5          0.7070   -2.8578   -0.0040 H         1 <0>         0.1791
     30 H6          0.8172    1.8399    0.0041 H         1 <0>         0.2185
     31 H7         -0.3286    3.8787    0.0247 H         1 <0>         0.1167
     32 H8         -4.1690    1.7543    0.8996 H         1 <0>         0.2507
     33 H9         -6.0850    2.6009   -1.1901 H         1 <0>         0.1589
     34 H10        -8.5338    2.3546   -1.1695 H         1 <0>         0.1382
     35 H11        -9.9243    3.9639    0.0690 H         1 <0>         0.1328
     36 H12        -8.8702    5.8165    1.2995 H         1 <0>         0.1361
     37 H13        -6.4217    6.0653    1.2932 H         1 <0>         0.1515
     38 H14        -1.3587    6.7297   -0.9836 H         1 <0>         0.0964
     39 H15        -1.9583    7.3714    0.5646 H         1 <0>         0.0966
     40 H16        -0.7425    6.0714    0.5511 H         1 <0>         0.0863
@<TRIPOS>BOND
     1    1    2 1
     2    1   26 1
     3    1   27 1
     4    1   28 1
     5    2    3 2
     6    2    7 1
     7    3   29 1
     8    3    4 1
     9    4    8 1
    10    4    5 2
    11    5    7 1
    12    6    7 1
    13    8    9 2
    14    8   10 am
    15   10   11 1
    16   10   30 1
    17   11   12 2
    18   12   13 1
    19   12   31 1
    20   13   17 2
    21   13   14 1
    22   14   15 2
    23   14   25 1
    24   15   16 1
    25   16   17 1
    26   16   19 1
    27   17   18 1
    28   18   32 1
    29   19   24 ar
    30   19   20 ar
    31   20   21 ar
    32   20   33 1
    33   21   22 ar
    34   21   34 1
    35   22   23 ar
    36   22   35 1
    37   23   24 ar
    38   23   36 1
    39   24   37 1
    40   25   38 1
    41   25   39 1
    42   25   40 1
@<TRIPOS>MOLECULE
ZINC00260968
   38    40     0     0     0
SMALL
USER_CHARGES

@<TRIPOS>ATOM
      1 C1          3.4333    1.6877    0.7551 C.3       1 <0>        -0.0650
      2 O1          2.3739    1.1351   -0.0286 O.3       1 <0>        -0.1992
      3 C2          1.1839    1.7947   -0.0114 C.ar      1 <0>         0.0589
      4 C3          1.0418    2.9477    0.7437 C.ar      1 <0>        -0.1952
      5 C4         -0.1679    3.6152    0.7671 C.ar      1 <0>        -0.1298
      6 C5         -1.2402    3.1384    0.0250 C.ar      1 <0>         0.0367
      7 C6         -1.1012    1.9835   -0.7327 C.ar      1 <0>        -0.1168
      8 C7          0.1095    1.3111   -0.7518 C.ar      1 <0>         0.0612
      9 O2          0.2481    0.1798   -1.4936 O.3       1 <0>        -0.2746
     10 N1         -2.4643    3.8194    0.0456 N.am      1 <0>        -0.3222
     11 C8         -3.6197    3.1319   -0.0488 C.2       1 <0>         0.2866
     12 O3         -3.6048    1.9190   -0.0552 O.2       1 <0>        -0.3384
     13 C9         -4.9299    3.8699   -0.1463 C.3       1 <0>        -0.0275
     14 N2         -6.0283    2.9049   -0.2380 N.am      1 <0>        -0.3061
     15 C10        -6.5167    2.4148   -1.3917 C.2       1 <0>         0.3674
     16 O4         -6.1225    2.6974   -2.5051 O.2       1 <0>        -0.2993
     17 C11        -7.6112    1.4724   -1.0773 C.ar      1 <0>        -0.1273
     18 C12        -8.4596    0.6855   -1.8396 C.ar      1 <0>        -0.0591
     19 C13        -9.4103   -0.1057   -1.2139 C.ar      1 <0>        -0.1137
     20 C14        -9.5174   -0.1147    0.1642 C.ar      1 <0>        -0.1138
     21 C15        -8.6756    0.6673    0.9396 C.ar      1 <0>        -0.0593
     22 C16        -7.7204    1.4632    0.3279 C.ar      1 <0>        -0.1273
     23 C17        -6.6853    2.3966    0.8201 C.2       1 <0>         0.3680
     24 O5         -6.4648    2.6603    1.9849 O.2       1 <0>        -0.2998
     25 H1          3.1318    1.7205    1.8020 H         1 <0>         0.0656
     26 H2          4.3232    1.0666    0.6525 H         1 <0>         0.1096
     27 H3          3.6531    2.6974    0.4085 H         1 <0>         0.0675
     28 H4          1.8759    3.3226    1.3182 H         1 <0>         0.1402
     29 H5         -0.2783    4.5111    1.3601 H         1 <0>         0.1312
     30 H6         -1.9363    1.6096   -1.3063 H         1 <0>         0.1755
     31 H7          0.0300   -0.6325   -1.0165 H         1 <0>         0.2288
     32 H8         -2.4804    4.7858    0.1279 H         1 <0>         0.2315
     33 H9         -5.0643    4.4903    0.7398 H         1 <0>         0.1291
     34 H10        -4.9259    4.5014   -1.0348 H         1 <0>         0.1315
     35 H11        -8.3806    0.6888   -2.9167 H         1 <0>         0.1511
     36 H12       -10.0722   -0.7191   -1.8072 H         1 <0>         0.1418
     37 H13       -10.2624   -0.7351    0.6401 H         1 <0>         0.1417
     38 H14        -8.7636    0.6560    2.0160 H         1 <0>         0.1508
@<TRIPOS>BOND
     1    1    2 1
     2    1   25 1
     3    1   26 1
     4    1   27 1
     5    2    3 1
     6    3    8 ar
     7    3    4 ar
     8    4    5 ar
     9    4   28 1
    10    5    6 ar
    11    5   29 1
    12    6    7 ar
    13    6   10 1
    14    7    8 ar
    15    7   30 1
    16    8    9 1
    17    9   31 1
    18   10   11 am
    19   10   32 1
    20   11   12 2
    21   11   13 1
    22   13   14 1
    23   13   33 1
    24   13   34 1
    25   14   23 am
    26   14   15 am
    27   15   16 2
    28   15   17 1
    29   17   22 ar
    30   17   18 ar
    31   18   19 ar
    32   18   35 1
    33   19   20 ar
    34   19   36 1
    35   20   21 ar
    36   20   37 1
    37   21   22 ar
    38   21   38 1
    39   22   23 1
    40   23   24 2
@<TRIPOS>MOLECULE
ZINC00261822
   43    45     0     0     0
SMALL
USER_CHARGES

@<TRIPOS>ATOM
      1 C1          2.3678   14.1574    0.8280 C.3       1 <0>        -0.2131
      2 C2          3.3844   13.0155    0.7688 C.3       1 <0>         0.0884
      3 C3          4.2214   13.0109    2.0496 C.3       1 <0>        -0.2260
      4 C4          4.3023   13.2120   -0.4394 C.3       1 <0>        -0.2260
      5 N1          2.6777   11.7385    0.6427 N.am      1 <0>        -0.3112
      6 C5          1.3397   11.6116    0.5885 C.2       1 <0>         0.3585
      7 O1          0.5386   12.5229    0.6354 O.2       1 <0>        -0.3005
      8 C6          1.0076   10.1745    0.4613 C.ar      1 <0>        -0.1113
      9 C7         -0.1781    9.4633    0.3648 C.ar      1 <0>        -0.0717
     10 C8         -0.1483    8.0837    0.2542 C.ar      1 <0>        -0.0941
     11 C9          1.0702    7.4049    0.2397 C.ar      1 <0>        -0.1151
     12 C10         2.2703    8.1143    0.3423 C.ar      1 <0>        -0.0035
     13 C11         2.2425    9.4943    0.4468 C.ar      1 <0>        -0.1420
     14 C12         3.2816   10.5391    0.5655 C.2       1 <0>         0.3620
     15 O2          4.4805   10.3467    0.5889 O.2       1 <0>        -0.2948
     16 C13         1.0922    5.9301    0.1215 C.2       1 <0>         0.3444
     17 O3          2.1531    5.3372    0.1088 O.2       1 <0>        -0.3370
     18 N2         -0.0643    5.2442    0.0281 N.am      1 <0>        -0.3223
     19 C14        -0.0487    3.8461    0.0140 C.ar      1 <0>         0.0701
     20 C15        -1.0736    3.1328    0.6237 C.ar      1 <0>        -0.1699
     21 C16        -1.0579    1.7518    0.6101 C.ar      1 <0>        -0.0986
     22 C17        -0.0233    1.0758   -0.0090 C.ar      1 <0>        -0.1676
     23 C18         1.0056    1.7829   -0.6149 C.ar      1 <0>         0.0883
     24 C19         0.9905    3.1690   -0.6084 C.ar      1 <0>        -0.1528
     25 O4          2.0249    1.1168   -1.2183 O.3       1 <0>        -0.2857
     26 H1          1.7140   14.0175    1.6888 H         1 <0>         0.0985
     27 H2          2.8937   15.1075    0.9219 H         1 <0>         0.0807
     28 H3          1.7716   14.1607   -0.0844 H         1 <0>         0.0984
     29 H4          4.9456   12.1974    2.0075 H         1 <0>         0.1022
     30 H5          4.7472   13.9611    2.1434 H         1 <0>         0.0886
     31 H6          3.5675   12.8710    2.9104 H         1 <0>         0.0818
     32 H7          3.7060   13.2152   -1.3519 H         1 <0>         0.0816
     33 H8          4.8281   14.1621   -0.3456 H         1 <0>         0.0887
     34 H9          5.0265   12.3985   -0.4816 H         1 <0>         0.1021
     35 H10        -1.1238    9.9846    0.3763 H         1 <0>         0.1542
     36 H11        -1.0727    7.5304    0.1790 H         1 <0>         0.1352
     37 H12         3.2140    7.5890    0.3360 H         1 <0>         0.1780
     38 H13        -0.9073    5.7204   -0.0295 H         1 <0>         0.2334
     39 H14        -1.8831    3.6585    1.1081 H         1 <0>         0.1299
     40 H15        -1.8552    1.1990    1.0845 H         1 <0>         0.1353
     41 H16        -0.0134   -0.0041   -0.0173 H         1 <0>         0.1409
     42 H17         1.7884    3.7209   -1.0831 H         1 <0>         0.1745
     43 H18         1.8708    0.9258   -2.1536 H         1 <0>         0.2273
@<TRIPOS>BOND
     1    1    2 1
     2    1   26 1
     3    1   27 1
     4    1   28 1
     5    2    3 1
     6    2    4 1
     7    2    5 1
     8    3   29 1
     9    3   30 1
    10    3   31 1
    11    4   32 1
    12    4   33 1
    13    4   34 1
    14    5   14 am
    15    5    6 am
    16    6    7 2
    17    6    8 1
    18    8   13 ar
    19    8    9 ar
    20    9   10 ar
    21    9   35 1
    22   10   11 ar
    23   10   36 1
    24   11   12 ar
    25   11   16 1
    26   12   13 ar
    27   12   37 1
    28   13   14 1
    29   14   15 2
    30   16   17 2
    31   16   18 am
    32   18   19 1
    33   18   38 1
    34   19   24 ar
    35   19   20 ar
    36   20   21 ar
    37   20   39 1
    38   21   22 ar
    39   21   40 1
    40   22   23 ar
    41   22   41 1
    42   23   24 ar
    43   23   25 1
    44   24   42 1
    45   25   43 1
@<TRIPOS>MOLECULE
ZINC00262118
   39    41     0     0     0
SMALL
USER_CHARGES

@<TRIPOS>ATOM
      1 C1         -9.6032   10.3344    0.8725 C.3       1 <0>        -0.2380
      2 C2         -8.7848    9.0734    0.7663 C.2       1 <0>         0.2995
      3 O1         -7.6907    9.0149    1.2867 O.2       1 <0>        -0.3488
      4 N1         -9.2685    8.0107    0.0932 N.am      1 <0>        -0.3281
      5 C3         -8.5501    6.8064    0.0742 C.ar      1 <0>        -0.0201
      6 C4         -7.1699    6.8290    0.0629 C.ar      1 <0>        -0.0233
      7 C5         -6.4562    5.6267    0.0444 C.ar      1 <0>        -0.1051
      8 C6         -7.1484    4.4035    0.0376 C.ar      1 <0>         0.0194
      9 C7         -8.5343    4.3920    0.0494 C.ar      1 <0>        -0.1941
     10 C8         -9.2350    5.5861    0.0673 C.ar      1 <0>         0.1247
     11 N2        -10.6330    5.5726    0.0784 N.pl3     1 <0>        -0.4171
     12 O2         -6.2071    3.4331    0.0196 O.3       1 <0>        -0.0931
     13 C9         -4.9968    4.0245    0.0156 C.2       1 <0>         0.0568
     14 N3         -5.1332    5.3258    0.0359 N.2       1 <0>        -0.1505
     15 C10        -3.7045    3.3086   -0.0026 C.ar      1 <0>         0.0221
     16 C11        -3.6800    1.9118   -0.0178 C.ar      1 <0>        -0.1208
     17 C12        -2.4763    1.2447   -0.0348 C.ar      1 <0>        -0.0724
     18 C13        -1.2784    1.9647   -0.0368 C.ar      1 <0>        -0.1016
     19 C14        -1.3031    3.3619   -0.0163 C.ar      1 <0>        -0.0857
     20 C15        -2.5071    4.0286   -0.0051 C.ar      1 <0>        -0.1011
     21 C16         0.0131    1.2493   -0.0545 C.2       1 <0>         0.3474
     22 O3          0.0345    0.0347   -0.0673 O.2       1 <0>        -0.3591
     23 O4          1.1677    1.9435   -0.0621 O.3       1 <0>        -0.2663
     24 C17         2.3991    1.1745   -0.0857 C.3       1 <0>        -0.0508
     25 H1        -10.2305   10.2865    1.7626 H         1 <0>         0.1076
     26 H2         -8.9376   11.1947    0.9429 H         1 <0>         0.1199
     27 H3        -10.2334   10.4339   -0.0113 H         1 <0>         0.0817
     28 H4        -10.1135    8.0788   -0.3782 H         1 <0>         0.2266
     29 H5         -6.6433    7.7719    0.0686 H         1 <0>         0.1832
     30 H6         -9.0672    3.4526    0.0438 H         1 <0>         0.1437
     31 H7        -11.1260    6.4078    0.0909 H         1 <0>         0.2174
     32 H8        -11.1099    4.7279    0.0737 H         1 <0>         0.2266
     33 H9         -4.6057    1.3554   -0.0158 H         1 <0>         0.1506
     34 H10        -2.4574    0.1649   -0.0469 H         1 <0>         0.1596
     35 H11        -0.3776    3.9185   -0.0137 H         1 <0>         0.1548
     36 H12        -2.5263    5.1084    0.0067 H         1 <0>         0.1639
     37 H13         2.4237    0.5554   -0.9825 H         1 <0>         0.0831
     38 H14         3.2516    1.8537   -0.0896 H         1 <0>         0.1039
     39 H15         2.4464    0.5371    0.7972 H         1 <0>         0.0834
@<TRIPOS>BOND
     1    1    2 1
     2    1   25 1
     3    1   26 1
     4    1   27 1
     5    2    3 2
     6    2    4 am
     7    4    5 1
     8    4   28 1
     9    5   10 ar
    10    5    6 ar
    11    6    7 ar
    12    6   29 1
    13    7   14 1
    14    7    8 ar
    15    8    9 ar
    16    8   12 1
    17    9   10 ar
    18    9   30 1
    19   10   11 1
    20   11   31 1
    21   11   32 1
    22   12   13 1
    23   13   14 2
    24   13   15 1
    25   15   20 ar
    26   15   16 ar
    27   16   17 ar
    28   16   33 1
    29   17   18 ar
    30   17   34 1
    31   18   19 ar
    32   18   21 1
    33   19   20 ar
    34   19   35 1
    35   20   36 1
    36   21   22 2
    37   21   23 1
    38   23   24 1
    39   24   37 1
    40   24   38 1
    41   24   39 1
@<TRIPOS>MOLECULE
ZINC00263080
   41    42     0     0     0
SMALL
USER_CHARGES

@<TRIPOS>ATOM
      1 C1        -14.0405   -0.1592    7.4105 C.3       1 <0>        -0.2376
      2 C2        -12.5814    0.2065    7.3198 C.2       1 <0>         0.2976
      3 O1        -11.8118   -0.5139    6.7199 O.2       1 <0>        -0.3399
      4 N1        -12.1316    1.3340    7.9053 N.am      1 <0>        -0.3324
      5 C3        -10.8012    1.7313    7.7289 C.ar      1 <0>         0.0577
      6 C4        -10.1300    2.3871    8.7543 C.ar      1 <0>        -0.1417
      7 C5         -8.8159    2.7808    8.5855 C.ar      1 <0>        -0.1180
      8 C6         -8.1598    2.5215    7.3993 C.ar      1 <0>        -0.1270
      9 C7         -8.8267    1.8682    6.3613 C.ar      1 <0>        -0.1083
     10 C8        -10.1531    1.4705    6.5320 C.ar      1 <0>        -0.0655
     11 C9         -8.1281    1.5934    5.0881 C.2       1 <0>         0.3631
     12 O2         -8.7093    1.0197    4.1872 O.2       1 <0>        -0.3092
     13 N2         -6.8468    1.9786    4.9257 N.am      1 <0>        -0.3325
     14 N3         -6.1846    1.7181    3.7189 N.2       1 <0>         0.0372
     15 C10        -4.9504    2.0891    3.5624 C.2       1 <0>        -0.1226
     16 C11        -4.2539    1.8151    2.2930 C.ar      1 <0>        -0.0372
     17 C12        -2.9260    2.2128    2.1211 C.ar      1 <0>        -0.1313
     18 C13        -2.2787    1.9526    0.9265 C.ar      1 <0>         0.0800
     19 C14        -2.9476    1.3026   -0.1026 C.ar      1 <0>        -0.1954
     20 C15        -4.2595    0.9010    0.0621 C.ar      1 <0>        -0.1242
     21 C16        -4.9206    1.1547    1.2525 C.ar      1 <0>         0.0737
     22 O3         -6.2126    0.7645    1.4106 O.3       1 <0>        -0.2618
     23 O4         -0.9860    2.3391    0.7574 O.3       1 <0>        -0.2134
     24 C17        -0.3783    2.0390   -0.5007 C.3       1 <0>        -0.0623
     25 H1        -14.5772    0.2756    6.5672 H         1 <0>         0.1090
     26 H2        -14.1454   -1.2439    7.3876 H         1 <0>         0.1200
     27 H3        -14.4545    0.2263    8.3423 H         1 <0>         0.0817
     28 H4        -12.7298    1.8701    8.4489 H         1 <0>         0.2326
     29 H5        -10.6370    2.5894    9.6862 H         1 <0>         0.1320
     30 H6         -8.2995    3.2897    9.3861 H         1 <0>         0.1345
     31 H7         -7.1318    2.8274    7.2727 H         1 <0>         0.1228
     32 H8        -10.6731    0.9614    5.7340 H         1 <0>         0.1872
     33 H9         -6.3831    2.4362    5.6444 H         1 <0>         0.2067
     34 H10        -4.4341    2.5987    4.3626 H         1 <0>         0.1156
     35 H11        -2.4058    2.7220    2.9189 H         1 <0>         0.1452
     36 H12        -2.4384    1.1061   -1.0345 H         1 <0>         0.1377
     37 H13        -4.7720    0.3921   -0.7408 H         1 <0>         0.1449
     38 H14        -6.8602    1.4289    1.1384 H         1 <0>         0.2358
     39 H15        -0.3847    0.9606   -0.6591 H         1 <0>         0.0694
     40 H16         0.6500    2.4005   -0.5030 H         1 <0>         0.1086
     41 H17        -0.9368    2.5269   -1.2995 H         1 <0>         0.0675
@<TRIPOS>BOND
     1    1    2 1
     2    1   25 1
     3    1   26 1
     4    1   27 1
     5    2    3 2
     6    2    4 am
     7    4    5 1
     8    4   28 1
     9    5   10 ar
    10    5    6 ar
    11    6    7 ar
    12    6   29 1
    13    7    8 ar
    14    7   30 1
    15    8    9 ar
    16    8   31 1
    17    9   10 ar
    18    9   11 1
    19   10   32 1
    20   11   12 2
    21   11   13 am
    22   13   14 1
    23   13   33 1
    24   14   15 2
    25   15   16 1
    26   15   34 1
    27   16   21 ar
    28   16   17 ar
    29   17   18 ar
    30   17   35 1
    31   18   19 ar
    32   18   23 1
    33   19   20 ar
    34   19   36 1
    35   20   21 ar
    36   20   37 1
    37   21   22 1
    38   22   38 1
    39   23   24 1
    40   24   39 1
    41   24   40 1
    42   24   41 1
@<TRIPOS>MOLECULE
ZINC00264610
   39    41     0     0     0
SMALL
USER_CHARGES

@<TRIPOS>ATOM
      1 C1          0.9156   -0.8672    2.0658 C.3       1 <0>        -0.0510
      2 O1         -0.2674   -0.1927    1.5619 O.3       1 <0>        -0.2667
      3 C2         -0.4237    1.1024    1.8996 C.2       1 <0>         0.3458
      4 O2          0.4059    1.6530    2.5960 O.2       1 <0>        -0.3545
      5 C3         -1.6051    1.8501    1.4288 C.ar      1 <0>        -0.1025
      6 C4         -2.5568    1.2179    0.6226 C.ar      1 <0>        -0.0738
      7 C5         -3.6536    1.9082    0.1913 C.ar      1 <0>        -0.1222
      8 C6         -3.8189    3.2511    0.5466 C.ar      1 <0>        -0.0654
      9 C7         -2.8637    3.8850    1.3484 C.ar      1 <0>        -0.1675
     10 C8         -1.7700    3.1925    1.7841 C.ar      1 <0>        -0.0643
     11 C9         -4.9986    3.9975    0.0769 C.2       1 <0>        -0.1198
     12 N1         -5.0191    5.2939    0.1522 N.2       1 <0>         0.0325
     13 N2         -3.8178    6.0148    0.1511 N.am      1 <0>        -0.3394
     14 C10        -3.8306    7.3460    0.3610 C.2       1 <0>         0.3845
     15 O3         -4.8852    7.9217    0.5516 O.2       1 <0>        -0.2925
     16 C11        -2.5690    8.1031    0.3599 C.2       1 <0>        -0.1718
     17 C12        -2.4202    9.4624    0.5589 C.2       1 <0>        -0.1331
     18 C13        -1.0352    9.7020    0.4649 C.2       1 <0>        -0.0429
     19 N3         -0.4476    8.5462    0.2277 N.2       1 <0>        -0.0560
     20 N4         -1.3129    7.5992    0.1676 N.pl3     1 <0>        -0.1088
     21 H1         -1.0995    6.6360    0.0043 H         1 <0>         0.2845
     22 C14        -0.3630   11.0119    0.6064 C.2       1 <0>         0.0172
     23 C15         0.9747   11.2350    0.5198 C.2       1 <0>        -0.1785
     24 C16         1.1692   12.6179    0.7137 C.2       1 <0>        -0.2224
     25 C17        -0.0462   13.1626    0.9147 C.2       1 <0>        -0.0906
     26 O4         -0.9698   12.1893    0.8492 O.3       1 <0>        -0.0491
     27 H2          0.9087   -0.8474    3.1556 H         1 <0>         0.0855
     28 H3          0.9188   -1.9012    1.7211 H         1 <0>         0.1059
     29 H4          1.8075   -0.3592    1.6988 H         1 <0>         0.0844
     30 H5         -2.4267    0.1825    0.3444 H         1 <0>         0.1553
     31 H6         -4.3908    1.4187   -0.4277 H         1 <0>         0.1429
     32 H7         -2.9912    4.9216    1.6231 H         1 <0>         0.1529
     33 H8         -1.0327    3.6817    2.4034 H         1 <0>         0.1612
     34 H9         -5.8465    3.4667   -0.3300 H         1 <0>         0.1906
     35 H10        -2.9769    5.5558   -0.0008 H         1 <0>         0.2152
     36 H11        -3.1993   10.1863    0.7470 H         1 <0>         0.1902
     37 H12         1.7406   10.4961    0.3362 H         1 <0>         0.1668
     38 H13         2.1141   13.1408    0.7063 H         1 <0>         0.1574
     39 H14        -0.2451   14.2082    1.0981 H         1 <0>         0.2002
@<TRIPOS>BOND
     1    1    2 1
     2    1   27 1
     3    1   28 1
     4    1   29 1
     5    2    3 1
     6    3    4 2
     7    3    5 1
     8    5   10 ar
     9    5    6 ar
    10    6    7 ar
    11    6   30 1
    12    7    8 ar
    13    7   31 1
    14    8    9 ar
    15    8   11 1
    16    9   10 ar
    17    9   32 1
    18   10   33 1
    19   11   12 2
    20   11   34 1
    21   12   13 1
    22   13   14 am
    23   13   35 1
    24   14   15 2
    25   14   16 1
    26   16   20 1
    27   16   17 2
    28   17   18 1
    29   17   36 1
    30   18   19 2
    31   18   22 1
    32   19   20 1
    33   20   21 1
    34   22   26 1
    35   22   23 2
    36   23   24 1
    37   23   37 1
    38   24   25 2
    39   24   38 1
    40   25   26 1
    41   25   39 1
@<TRIPOS>MOLECULE
ZINC00264694
   39    40     0     0     0
SMALL
USER_CHARGES

@<TRIPOS>ATOM
      1 C1          0.1934   10.7974   -9.0961 C.3       1 <0>        -0.1731
      2 C2          0.1014   10.4024   -7.6447 C.ar      1 <0>        -0.0762
      3 C3         -0.5726    9.2498   -7.2852 C.ar      1 <0>        -0.1214
      4 C4         -0.6603    8.8826   -5.9559 C.ar      1 <0>        -0.1122
      5 C5         -0.0712    9.6713   -4.9784 C.ar      1 <0>         0.0301
      6 C6          0.6031   10.8351   -5.3408 C.ar      1 <0>         0.0408
      7 C7          0.6906   11.1937   -6.6762 C.ar      1 <0>        -0.1373
      8 O1          1.1777   11.6150   -4.3866 O.3       1 <0>        -0.2947
      9 N1         -0.1591    9.3013   -3.6298 N.am      1 <0>        -0.3194
     10 C8         -0.1455    7.9981   -3.2863 C.2       1 <0>         0.3074
     11 O2         -0.1387    7.1439   -4.1474 O.2       1 <0>        -0.3550
     12 C9         -0.1388    7.6022   -1.8322 C.3       1 <0>        -0.1677
     13 C10        -0.1234    6.0764   -1.7192 C.3       1 <0>        -0.7328
     14 S1         -0.1153    5.5999    0.0311 S.o2      1 <0>         2.6536
     15 O3         -1.3523    5.9466    0.6385 O.2       1 <0>        -0.8994
     16 O4          1.1169    5.9711    0.6337 O.2       1 <0>        -0.8998
     17 C11        -0.0979    3.8380    0.0206 C.ar      1 <0>        -0.7402
     18 C12         1.1060    3.1587    0.0141 C.ar      1 <0>        -0.0280
     19 C13         1.1197    1.7765    0.0063 C.ar      1 <0>        -0.1487
     20 C14        -0.0706    1.0735    0.0045 C.ar      1 <0>        -0.0722
     21 C15        -1.2745    1.7528    0.0052 C.ar      1 <0>        -0.1487
     22 C16        -1.2882    3.1350    0.0183 C.ar      1 <0>        -0.0280
     23 H1         -0.6554   11.4304   -9.3549 H         1 <0>         0.0878
     24 H2          1.1203   11.3455   -9.2654 H         1 <0>         0.0816
     25 H3          0.1819    9.9022   -9.7177 H         1 <0>         0.0832
     26 H4         -1.0320    8.6351   -8.0453 H         1 <0>         0.1367
     27 H5         -1.1876    7.9820   -5.6779 H         1 <0>         0.1675
     28 H6          1.2159   12.0935   -6.9604 H         1 <0>         0.1427
     29 H7          2.0947   11.3816   -4.1876 H         1 <0>         0.2268
     30 H8         -0.2297    9.9831   -2.9434 H         1 <0>         0.2431
     31 H9         -1.0317    7.9937   -1.3449 H         1 <0>         0.1172
     32 H10         0.7481    8.0113   -1.3484 H         1 <0>         0.1171
     33 H11         0.7695    5.6850   -2.2065 H         1 <0>         0.1545
     34 H12        -1.0104    5.6673   -2.2030 H         1 <0>         0.1539
     35 H13         2.0359    3.7079    0.0155 H         1 <0>         0.1501
     36 H14         2.0603    1.2458    0.0013 H         1 <0>         0.1379
     37 H15        -0.0599   -0.0065   -0.0019 H         1 <0>         0.1344
     38 H16        -2.2044    1.2036   -0.0007 H         1 <0>         0.1379
     39 H17        -2.2288    3.6657    0.0230 H         1 <0>         0.1502
@<TRIPOS>BOND
     1    1    2 1
     2    1   23 1
     3    1   24 1
     4    1   25 1
     5    2    7 ar
     6    2    3 ar
     7    3    4 ar
     8    3   26 1
     9    4    5 ar
    10    4   27 1
    11    5    6 ar
    12    5    9 1
    13    6    7 ar
    14    6    8 1
    15    7   28 1
    16    8   29 1
    17    9   10 am
    18    9   30 1
    19   10   11 2
    20   10   12 1
    21   12   13 1
    22   12   31 1
    23   12   32 1
    24   13   14 1
    25   13   33 1
    26   13   34 1
    27   14   15 2
    28   14   16 2
    29   14   17 1
    30   17   22 ar
    31   17   18 ar
    32   18   19 ar
    33   18   35 1
    34   19   20 ar
    35   19   36 1
    36   20   21 ar
    37   20   37 1
    38   21   22 ar
    39   21   38 1
    40   22   39 1
@<TRIPOS>MOLECULE
ZINC00266266
   40    42     0     0     0
SMALL
USER_CHARGES

@<TRIPOS>ATOM
      1 C1          5.5273   -1.7236   -5.2439 C.3       1 <0>        -0.0662
      2 O1          5.0045   -1.4309   -3.9466 O.3       1 <0>        -0.1938
      3 C2          5.7385   -1.8418   -2.8780 C.ar      1 <0>         0.0686
      4 C3          6.9333   -2.5101   -3.0751 C.ar      1 <0>        -0.1613
      5 C4          7.6834   -2.9295   -1.9780 C.ar      1 <0>        -0.0197
      6 C5          7.2276   -2.6742   -0.6860 C.ar      1 <0>        -0.1037
      7 C6          6.0380   -2.0022   -0.4937 C.ar      1 <0>        -0.1959
      8 C7          5.2877   -1.5893   -1.5847 C.ar      1 <0>         0.0849
      9 O2          4.1134   -0.9324   -1.3913 O.3       1 <0>        -0.1882
     10 C8          3.7112   -0.7071   -0.0387 C.3       1 <0>         0.0259
     11 C9          2.3960    0.0285   -0.0217 C.ar      1 <0>        -0.0871
     12 C10         1.2084   -0.6789   -0.0136 C.ar      1 <0>        -0.1011
     13 C11         0.0021   -0.0041    0.0020 C.ar      1 <0>        -0.1318
     14 C12        -0.0167    1.3781    0.0096 C.ar      1 <0>        -0.1165
     15 C13         1.1709    2.0855    0.0021 C.ar      1 <0>        -0.1318
     16 C14         2.3773    1.4107   -0.0136 C.ar      1 <0>        -0.1011
     17 C15         8.9655   -3.6472   -2.1852 C.2       1 <0>        -0.0868
     18 C16         9.8441   -4.1320   -1.1774 C.2       1 <0>        -0.1538
     19 C17        10.8625   -4.7078   -1.8826 C.2       1 <0>        -0.1546
     20 O3         10.5634   -4.5410   -3.1849 O.3       1 <0>         0.0427
     21 N1          9.5163   -3.9556   -3.3327 N.2       1 <0>        -0.0173
     22 C18        12.0557   -5.3747   -1.3278 C.2       1 <0>         0.3918
     23 O4         12.2021   -5.4557   -0.1235 O.2       1 <0>        -0.3461
     24 N2         12.9836   -5.8943   -2.1558 N.am      1 <0>        -0.4169
     25 H1          5.6325   -2.8025   -5.3583 H         1 <0>         0.0686
     26 H2          4.8462   -1.3424   -6.0047 H         1 <0>         0.1106
     27 H3          6.5020   -1.2494   -5.3584 H         1 <0>         0.0686
     28 H4          7.2840   -2.7069   -4.0774 H         1 <0>         0.1569
     29 H5          7.8079   -2.9987    0.1651 H         1 <0>         0.1357
     30 H6          5.6882   -1.8013    0.5081 H         1 <0>         0.1436
     31 H7          4.4678   -0.1105    0.4708 H         1 <0>         0.0800
     32 H8          3.5989   -1.6640    0.4711 H         1 <0>         0.0800
     33 H9          1.2231   -1.7587   -0.0199 H         1 <0>         0.1333
     34 H10        -0.9258   -0.5567    0.0079 H         1 <0>         0.1315
     35 H11        -0.9592    1.9054    0.0170 H         1 <0>         0.1301
     36 H12         1.1563    3.1654    0.0077 H         1 <0>         0.1315
     37 H13         3.3051    1.9634   -0.0195 H         1 <0>         0.1333
     38 H14         9.7314   -4.0629   -0.1055 H         1 <0>         0.1913
     39 H15        12.8668   -5.8298   -3.1166 H         1 <0>         0.2265
     40 H16        13.7681   -6.3328   -1.7910 H         1 <0>         0.2384
@<TRIPOS>BOND
     1    1    2 1
     2    1   25 1
     3    1   26 1
     4    1   27 1
     5    2    3 1
     6    3    8 ar
     7    3    4 ar
     8    4    5 ar
     9    4   28 1
    10    5    6 ar
    11    5   17 1
    12    6    7 ar
    13    6   29 1
    14    7    8 ar
    15    7   30 1
    16    8    9 1
    17    9   10 1
    18   10   11 1
    19   10   31 1
    20   10   32 1
    21   11   16 ar
    22   11   12 ar
    23   12   13 ar
    24   12   33 1
    25   13   14 ar
    26   13   34 1
    27   14   15 ar
    28   14   35 1
    29   15   16 ar
    30   15   36 1
    31   16   37 1
    32   17   21 2
    33   17   18 1
    34   18   19 2
    35   18   38 1
    36   19   20 1
    37   19   22 1
    38   20   21 1
    39   22   23 2
    40   22   24 am
    41   24   39 1
    42   24   40 1
@<TRIPOS>MOLECULE
ZINC00268949
   38    40     0     0     0
SMALL
USER_CHARGES

@<TRIPOS>ATOM
      1 C1         -0.2316    0.0098   -0.7321 C.3       1 <0>        -0.2413
      2 C2         -0.2680    1.5163   -0.7171 C.2       1 <0>         0.3004
      3 O1          0.5334    2.1487   -1.3718 O.2       1 <0>        -0.3463
      4 N1         -1.1946    2.1607    0.0195 N.am      1 <0>        -0.3304
      5 C3         -1.1624    3.5499    0.1191 C.ar      1 <0>         0.0982
      6 C4          0.0590    4.2179    0.1147 C.ar      1 <0>        -0.1445
      7 C5          0.0953    5.5851    0.2076 C.ar      1 <0>        -0.0692
      8 C6         -1.0984    6.3092    0.3179 C.ar      1 <0>        -0.1788
      9 C7         -2.3247    5.6326    0.3272 C.ar      1 <0>        -0.0431
     10 C8         -2.3515    4.2655    0.2285 C.ar      1 <0>        -0.1812
     11 C9         -1.0645    7.7735    0.4229 C.2       1 <0>         0.2874
     12 O2         -2.0995    8.3989    0.5179 O.2       1 <0>        -0.2763
     13 C10         0.2561    8.4993    0.4126 C.3       1 <0>        -0.3316
     14 S1         -0.0337   10.2842    0.5564 S.3       1 <0>         0.3373
     15 C11         1.5840   10.9822    0.5299 C.2       1 <0>        -0.1782
     16 N2          1.8650   12.2841    0.6059 N.2       1 <0>        -0.1952
     17 C12         3.1735   12.4606    0.5619 C.2       1 <0>         0.1022
     18 N3          3.7532   11.2362    0.4444 N.pl3     1 <0>        -0.1922
     19 H1          4.7024   11.0451    0.3854 H         1 <0>         0.2810
     20 N4          2.7035   10.3037    0.4265 N.2       1 <0>        -0.1326
     21 C13         3.8774   13.7516    0.6231 C.2       1 <0>        -0.0235
     22 C14         3.2927   14.9770    0.7354 C.2       1 <0>        -0.1314
     23 C15         4.3351   15.9222    0.7609 C.2       1 <0>        -0.2256
     24 C16         5.4925   15.2382    0.6549 C.2       1 <0>        -0.0760
     25 O3          5.2126   13.9282    0.5720 O.3       1 <0>        -0.0618
     26 H2          0.5756   -0.3277   -1.3821 H         1 <0>         0.1213
     27 H3         -0.0621   -0.3596    0.2793 H         1 <0>         0.0978
     28 H4         -1.1820   -0.3729   -1.1042 H         1 <0>         0.0973
     29 H5         -1.8839    1.6573    0.4802 H         1 <0>         0.2352
     30 H6          0.9793    3.6583    0.0341 H         1 <0>         0.1640
     31 H7          1.0431    6.1027    0.2000 H         1 <0>         0.1400
     32 H8         -3.2476    6.1869    0.4124 H         1 <0>         0.1558
     33 H9         -3.2966    3.7429    0.2353 H         1 <0>         0.1359
     34 H10         0.8131    8.1889    1.1830 H         1 <0>         0.1226
     35 H11         0.7784    8.2901   -0.5210 H         1 <0>         0.1352
     36 H12         2.2343   15.1830    0.7958 H         1 <0>         0.1802
     37 H13         4.2281   16.9936    0.8448 H         1 <0>         0.1637
     38 H14         6.4811   15.6727    0.6389 H         1 <0>         0.2037
@<TRIPOS>BOND
     1    1    2 1
     2    1   26 1
     3    1   27 1
     4    1   28 1
     5    2    3 2
     6    2    4 am
     7    4    5 1
     8    4   29 1
     9    5   10 ar
    10    5    6 ar
    11    6    7 ar
    12    6   30 1
    13    7    8 ar
    14    7   31 1
    15    8    9 ar
    16    8   11 1
    17    9   10 ar
    18    9   32 1
    19   10   33 1
    20   11   12 2
    21   11   13 1
    22   13   14 1
    23   13   34 1
    24   13   35 1
    25   14   15 1
    26   15   20 2
    27   15   16 1
    28   16   17 2
    29   17   18 1
    30   17   21 1
    31   18   19 1
    32   18   20 1
    33   21   25 1
    34   21   22 2
    35   22   23 1
    36   22   36 1
    37   23   24 2
    38   23   37 1
    39   24   25 1
    40   24   38 1
@<TRIPOS>MOLECULE
ZINC00269543
   40    42     0     0     0
SMALL
USER_CHARGES

@<TRIPOS>ATOM
      1 C1         -8.4446    8.3697    7.0926 C.3       1 <0>        -0.2412
      2 C2         -7.8537    7.5005    6.0126 C.2       1 <0>         0.2997
      3 O1         -8.5460    6.6805    5.4477 O.2       1 <0>        -0.3437
      4 N1         -6.5559    7.6345    5.6745 N.am      1 <0>        -0.3312
      5 C3         -6.0368    6.9105    4.6033 C.ar      1 <0>         0.0952
      6 C4         -6.8392    6.6315    3.5004 C.ar      1 <0>        -0.1452
      7 C5         -6.3329    5.9191    2.4444 C.ar      1 <0>        -0.0439
      8 C6         -5.0060    5.4717    2.4763 C.ar      1 <0>        -0.1781
      9 C7         -4.2043    5.7498    3.5904 C.ar      1 <0>        -0.0729
     10 C8         -4.7174    6.4679    4.6394 C.ar      1 <0>        -0.1801
     11 C9         -4.4590    4.7082    1.3474 C.2       1 <0>         0.2568
     12 O2         -5.1565    4.4641    0.3856 O.2       1 <0>        -0.2641
     13 C10        -3.0310    4.2279    1.3841 C.3       1 <0>        -0.2149
     14 C11        -2.7165    3.4648    0.0958 C.3       1 <0>         0.1192
     15 C12        -1.3295    2.8676    0.1594 C.ar      1 <0>        -0.1316
     16 C13        -0.0759    3.4228    0.2852 C.ar      1 <0>        -0.0558
     17 C14         1.0408    2.6059    0.3154 C.ar      1 <0>        -0.1618
     18 C15         0.8925    1.2342    0.2188 C.ar      1 <0>        -0.0862
     19 C16        -0.3623    0.6755    0.0930 C.ar      1 <0>        -0.1630
     20 C17        -1.4913    1.4919    0.0566 C.ar      1 <0>         0.0760
     21 N2         -2.8440    1.1730   -0.0676 N.am      1 <0>        -0.3133
     22 C18        -3.6268    2.2652   -0.0607 C.2       1 <0>         0.2909
     23 O3         -4.8360    2.2855   -0.1526 O.2       1 <0>        -0.2868
     24 O4         -2.8402    4.3238   -1.0394 O.3       1 <0>        -0.3248
     25 H1         -8.3540    9.4175    6.8059 H         1 <0>         0.0975
     26 H2         -9.4970    8.1191    7.2254 H         1 <0>         0.1215
     27 H3         -7.9102    8.2013    8.0275 H         1 <0>         0.0962
     28 H4         -5.9834    8.2350    6.1769 H         1 <0>         0.2337
     29 H5         -7.8622    6.9772    3.4766 H         1 <0>         0.1656
     30 H6         -6.9562    5.7028    1.5894 H         1 <0>         0.1600
     31 H7         -3.1820    5.4027    3.6213 H         1 <0>         0.1327
     32 H8         -4.0987    6.6863    5.4972 H         1 <0>         0.1321
     33 H9         -2.9030    3.6227    2.1698 H         1 <0>         0.1112
     34 H10        -2.3620    5.0839    1.4719 H         1 <0>         0.1218
     35 H11         0.0358    4.4943    0.3607 H         1 <0>         0.1375
     36 H12         2.0255    3.0384    0.4137 H         1 <0>         0.1357
     37 H13         1.7641    0.5970    0.2423 H         1 <0>         0.1351
     38 H14        -0.4699   -0.3966    0.0182 H         1 <0>         0.1339
     39 H15        -3.1806    0.2670   -0.1493 H         1 <0>         0.2448
     40 H16        -3.7112    4.7342   -1.1290 H         1 <0>         0.2415
@<TRIPOS>BOND
     1    1    2 1
     2    1   25 1
     3    1   26 1
     4    1   27 1
     5    2    3 2
     6    2    4 am
     7    4    5 1
     8    4   28 1
     9    5   10 ar
    10    5    6 ar
    11    6    7 ar
    12    6   29 1
    13    7    8 ar
    14    7   30 1
    15    8    9 ar
    16    8   11 1
    17    9   10 ar
    18    9   31 1
    19   10   32 1
    20   11   12 2
    21   11   13 1
    22   13   14 1
    23   13   33 1
    24   13   34 1
    25   14   22 1
    26   14   15 1
    27   14   24 1
    28   15   20 ar
    29   15   16 ar
    30   16   17 ar
    31   16   35 1
    32   17   18 ar
    33   17   36 1
    34   18   19 ar
    35   18   37 1
    36   19   20 ar
    37   19   38 1
    38   20   21 1
    39   21   22 am
    40   21   39 1
    41   22   23 2
    42   24   40 1
@<TRIPOS>MOLECULE
ZINC00269547
   40    42     0     0     0
SMALL
USER_CHARGES

@<TRIPOS>ATOM
      1 C1         -2.6971    3.9010    0.8001 C.3       1 <0>        -0.2361
      2 C2         -1.3540    3.2254    0.6955 C.2       1 <0>         0.3018
      3 O1         -0.3814    3.7252    1.2199 O.2       1 <0>        -0.3522
      4 N1         -1.2338    2.0659    0.0191 N.am      1 <0>        -0.3287
      5 C3         -0.0144    1.3923    0.0026 C.ar      1 <0>         0.0915
      6 C4          1.1764    2.1132   -0.0158 C.ar      1 <0>        -0.1438
      7 C5          2.3785    1.4547   -0.0377 C.ar      1 <0>        -0.0741
      8 C6          2.4074    0.0544   -0.0418 C.ar      1 <0>        -0.1778
      9 C7          1.2068   -0.6666   -0.0233 C.ar      1 <0>        -0.0452
     10 C8          0.0094    0.0004   -0.0013 C.ar      1 <0>        -0.1794
     11 C9          3.6926   -0.6556   -0.0648 C.2       1 <0>         0.2667
     12 O2          3.7156   -1.8683   -0.0679 O.2       1 <0>        -0.2767
     13 C10         4.9830    0.1225   -0.0847 C.3       1 <0>        -0.2146
     14 C11         6.1644   -0.8495   -0.1066 C.3       1 <0>         0.1203
     15 C12         7.4725   -0.0928   -0.1268 C.ar      1 <0>        -0.1300
     16 C13         8.0554    0.7930    0.7514 C.ar      1 <0>        -0.0553
     17 C14         9.2927    1.3404    0.4600 C.ar      1 <0>        -0.1602
     18 C15         9.9387    0.9950   -0.7131 C.ar      1 <0>        -0.0868
     19 C16         9.3570    0.1075   -1.5944 C.ar      1 <0>        -0.1624
     20 C17         8.1111   -0.4476   -1.3081 C.ar      1 <0>         0.0735
     21 N2          7.3285   -1.3521   -2.0267 N.am      1 <0>        -0.3127
     22 C18         6.1768   -1.6403   -1.3975 C.2       1 <0>         0.2916
     23 O3          5.3103   -2.3929   -1.7897 O.2       1 <0>        -0.2959
     24 O4          6.1106   -1.7264    1.0205 O.3       1 <0>        -0.3271
     25 H1         -3.4438    3.3089    0.2710 H         1 <0>         0.0793
     26 H2         -2.9792    3.9881    1.8493 H         1 <0>         0.1174
     27 H3         -2.6396    4.8946    0.3556 H         1 <0>         0.1148
     28 H4         -1.9963    1.7004   -0.4562 H         1 <0>         0.2355
     29 H5          1.1531    3.1930   -0.0127 H         1 <0>         0.1689
     30 H6          3.3018    2.0147   -0.0523 H         1 <0>         0.1361
     31 H7          1.2244   -1.7465   -0.0266 H         1 <0>         0.1567
     32 H8         -0.9168   -0.5548    0.0133 H         1 <0>         0.1352
     33 H9          5.0114    0.7001   -0.9005 H         1 <0>         0.1106
     34 H10         5.0438    0.7482    0.8058 H         1 <0>         0.1249
     35 H11         7.5480    1.0600    1.6666 H         1 <0>         0.1393
     36 H12         9.7524    2.0357    1.1467 H         1 <0>         0.1363
     37 H13        10.9042    1.4223   -0.9403 H         1 <0>         0.1352
     38 H14         9.8678   -0.1573   -2.5084 H         1 <0>         0.1334
     39 H15         7.5864   -1.7297   -2.8822 H         1 <0>         0.2443
     40 H16         5.3044   -2.2584    1.0668 H         1 <0>         0.2458
@<TRIPOS>BOND
     1    1    2 1
     2    1   25 1
     3    1   26 1
     4    1   27 1
     5    2    3 2
     6    2    4 am
     7    4    5 1
     8    4   28 1
     9    5   10 ar
    10    5    6 ar
    11    6    7 ar
    12    6   29 1
    13    7    8 ar
    14    7   30 1
    15    8    9 ar
    16    8   11 1
    17    9   10 ar
    18    9   31 1
    19   10   32 1
    20   11   12 2
    21   11   13 1
    22   13   14 1
    23   13   33 1
    24   13   34 1
    25   14   22 1
    26   14   15 1
    27   14   24 1
    28   15   20 ar
    29   15   16 ar
    30   16   17 ar
    31   16   35 1
    32   17   18 ar
    33   17   36 1
    34   18   19 ar
    35   18   37 1
    36   19   20 ar
    37   19   38 1
    38   20   21 1
    39   21   22 am
    40   21   39 1
    41   22   23 2
    42   24   40 1
@<TRIPOS>MOLECULE
ZINC00270138
   43    44     0     0     0
SMALL
USER_CHARGES

@<TRIPOS>ATOM
      1 C1          0.5507    0.2216   -0.2425 C.3       1 <0>        -0.2071
      2 C2          0.4375    1.7463   -0.1835 C.3       1 <0>        -0.1112
      3 C3          1.8383    2.3608   -0.1507 C.3       1 <0>        -0.2119
      4 C4         -0.3273    2.1525    1.0778 C.3       1 <0>        -0.1284
      5 C5         -0.5458    3.6436    1.0744 C.ar      1 <0>        -0.0143
      6 C6          0.3877    4.4803    1.6570 C.ar      1 <0>        -0.1522
      7 C7          0.1893    5.8483    1.6500 C.ar      1 <0>        -0.0265
      8 C8         -0.9470    6.3790    1.0685 C.ar      1 <0>        -0.7635
      9 C9         -1.8830    5.5419    0.4905 C.ar      1 <0>        -0.0145
     10 C10        -1.6826    4.1742    0.4937 C.ar      1 <0>        -0.1513
     11 S1         -1.2019    8.1225    1.0634 S.o2      1 <0>         2.7626
     12 O1          0.0813    8.7209    1.1836 O.2       1 <0>        -0.9232
     13 O2         -2.0742    8.4022   -0.0229 O.2       1 <0>        -0.9037
     14 N1         -2.0316    8.5000    2.4460 N.pl3     1 <0>        -0.7961
     15 C11        -1.4760    8.2199    3.6876 C.ar      1 <0>         0.1389
     16 C12        -0.1057    8.3418    3.8832 C.ar      1 <0>        -0.2016
     17 C13         0.4431    8.0681    5.1190 C.ar      1 <0>        -0.0736
     18 C14        -0.3631    7.6602    6.1702 C.ar      1 <0>        -0.1609
     19 C15        -1.7229    7.5280    5.9939 C.ar      1 <0>        -0.0813
     20 C16        -2.2949    7.8066    4.7498 C.ar      1 <0>        -0.1690
     21 C17        -3.7495    7.6668    4.5541 C.2       1 <0>         0.3613
     22 O3         -4.2432    7.9098    3.4698 O.2       1 <0>        -0.3850
     23 N2         -4.5319    7.2696    5.5771 N.am      1 <0>        -0.4243
     24 H1          1.0844   -0.1374    0.6375 H         1 <0>         0.0739
     25 H2         -0.4473   -0.2162   -0.2659 H         1 <0>         0.0729
     26 H3          1.0956   -0.0678   -1.1411 H         1 <0>         0.0779
     27 H4         -0.0962    2.1053   -1.0635 H         1 <0>         0.0956
     28 H5          1.7577    3.4470   -0.1087 H         1 <0>         0.0828
     29 H6          2.3720    2.0017    0.7293 H         1 <0>         0.0713
     30 H7          2.3832    2.0713   -1.0493 H         1 <0>         0.0767
     31 H8         -1.2912    1.6440    1.0978 H         1 <0>         0.0924
     32 H9          0.2498    1.8719    1.9589 H         1 <0>         0.0926
     33 H10         1.2736    4.0654    2.1146 H         1 <0>         0.1371
     34 H11         0.9208    6.5023    2.1012 H         1 <0>         0.1465
     35 H12        -2.7708    5.9565    0.0362 H         1 <0>         0.1542
     36 H13        -2.4139    3.5202    0.0422 H         1 <0>         0.1379
     37 H14        -2.9056    8.9167    2.3886 H         1 <0>         0.2849
     38 H15         0.5298    8.6551    3.0681 H         1 <0>         0.1901
     39 H16         1.5082    8.1680    5.2671 H         1 <0>         0.1387
     40 H17         0.0773    7.4444    7.1324 H         1 <0>         0.1343
     41 H18        -2.3461    7.2092    6.8163 H         1 <0>         0.1260
     42 H19        -4.1381    7.0758    6.4421 H         1 <0>         0.2177
     43 H20        -5.4889    7.1777    5.4484 H         1 <0>         0.2330
@<TRIPOS>BOND
     1    1    2 1
     2    1   24 1
     3    1   25 1
     4    1   26 1
     5    2    3 1
     6    2    4 1
     7    2   27 1
     8    3   28 1
     9    3   29 1
    10    3   30 1
    11    4    5 1
    12    4   31 1
    13    4   32 1
    14    5   10 ar
    15    5    6 ar
    16    6    7 ar
    17    6   33 1
    18    7    8 ar
    19    7   34 1
    20    8    9 ar
    21    8   11 1
    22    9   10 ar
    23    9   35 1
    24   10   36 1
    25   11   12 2
    26   11   13 2
    27   11   14 1
    28   14   15 1
    29   14   37 1
    30   15   20 ar
    31   15   16 ar
    32   16   17 ar
    33   16   38 1
    34   17   18 ar
    35   17   39 1
    36   18   19 ar
    37   18   40 1
    38   19   20 ar
    39   19   41 1
    40   20   21 1
    41   21   22 2
    42   21   23 am
    43   23   42 1
    44   23   43 1
@<TRIPOS>MOLECULE
ZINC00270140
   43    44     0     0     0
SMALL
USER_CHARGES

@<TRIPOS>ATOM
      1 C1          1.4815    0.4741    0.1475 C.3       1 <0>        -0.2071
      2 C2          1.1795    1.9737    0.1206 C.3       1 <0>        -0.1110
      3 C3          2.4921    2.7573    0.0575 C.3       1 <0>        -0.2120
      4 C4          0.4138    2.3626    1.3869 C.3       1 <0>        -0.1288
      5 C5          0.0094    3.8119    1.3042 C.ar      1 <0>        -0.0145
      6 C6          0.8498    4.7931    1.7960 C.ar      1 <0>        -0.1508
      7 C7          0.4806    6.1229    1.7167 C.ar      1 <0>        -0.0217
      8 C8         -0.7327    6.4709    1.1530 C.ar      1 <0>        -0.7652
      9 C9         -1.5755    5.4893    0.6660 C.ar      1 <0>        -0.0249
     10 C10        -1.2045    4.1598    0.7418 C.ar      1 <0>        -0.1523
     11 S1         -1.2053    8.1655    1.0558 S.o2      1 <0>         2.7597
     12 O1         -0.0165    8.9282    1.2114 O.2       1 <0>        -0.9083
     13 O2         -2.0454    8.2882   -0.0836 O.2       1 <0>        -0.9116
     14 N1         -2.1502    8.4869    2.3773 N.pl3     1 <0>        -0.8280
     15 C11        -1.6135    8.3882    3.6562 C.ar      1 <0>         0.0595
     16 C12        -1.9553    7.3130    4.4719 C.ar      1 <0>        -0.1391
     17 C13        -1.4215    7.2096    5.7360 C.ar      1 <0>        -0.1039
     18 C14        -0.5437    8.1913    6.2049 C.ar      1 <0>        -0.1262
     19 C15        -0.2069    9.2727    5.3856 C.ar      1 <0>        -0.0610
     20 C16        -0.7400    9.3678    4.1205 C.ar      1 <0>        -0.1239
     21 C17         0.0264    8.0861    7.5615 C.2       1 <0>         0.3481
     22 O3          0.7901    8.9406    7.9679 O.2       1 <0>        -0.3640
     23 N2         -0.2992    7.0430    8.3503 N.am      1 <0>        -0.4281
     24 H1          2.0863    0.2409    1.0238 H         1 <0>         0.0746
     25 H2          0.5463   -0.0841    0.1924 H         1 <0>         0.0725
     26 H3          2.0269    0.1971   -0.7547 H         1 <0>         0.0788
     27 H4          0.5747    2.2069   -0.7557 H         1 <0>         0.0953
     28 H5          3.0376    2.4803   -0.8446 H         1 <0>         0.0776
     29 H6          2.2770    3.8257    0.0384 H         1 <0>         0.0826
     30 H7          3.0969    2.5241    0.9338 H         1 <0>         0.0723
     31 H8         -0.4772    1.7413    1.4778 H         1 <0>         0.0916
     32 H9          1.0518    2.2125    2.2578 H         1 <0>         0.0936
     33 H10         1.7962    4.5210    2.2395 H         1 <0>         0.1401
     34 H11         1.1388    6.8897    2.0975 H         1 <0>         0.1546
     35 H12        -2.5235    5.7611    0.2259 H         1 <0>         0.1460
     36 H13        -1.8629    3.3929    0.3613 H         1 <0>         0.1374
     37 H14        -3.0780    8.7440    2.2591 H         1 <0>         0.2553
     38 H15        -2.6370    6.5572    4.1107 H         1 <0>         0.1397
     39 H16        -1.6835    6.3729    6.3667 H         1 <0>         0.1279
     40 H17         0.4713   10.0326    5.7449 H         1 <0>         0.1651
     41 H18        -0.4802   10.2030    3.4870 H         1 <0>         0.1618
     42 H19        -0.9084    6.3613    8.0260 H         1 <0>         0.2154
     43 H20         0.0757    6.9738    9.2422 H         1 <0>         0.2329
@<TRIPOS>BOND
     1    1    2 1
     2    1   24 1
     3    1   25 1
     4    1   26 1
     5    2    3 1
     6    2    4 1
     7    2   27 1
     8    3   28 1
     9    3   29 1
    10    3   30 1
    11    4    5 1
    12    4   31 1
    13    4   32 1
    14    5   10 ar
    15    5    6 ar
    16    6    7 ar
    17    6   33 1
    18    7    8 ar
    19    7   34 1
    20    8    9 ar
    21    8   11 1
    22    9   10 ar
    23    9   35 1
    24   10   36 1
    25   11   12 2
    26   11   13 2
    27   11   14 1
    28   14   15 1
    29   14   37 1
    30   15   20 ar
    31   15   16 ar
    32   16   17 ar
    33   16   38 1
    34   17   18 ar
    35   17   39 1
    36   18   19 ar
    37   18   21 1
    38   19   20 ar
    39   19   40 1
    40   20   41 1
    41   21   22 2
    42   21   23 am
    43   23   42 1
    44   23   43 1
@<TRIPOS>MOLECULE
ZINC00285933
   43    46     0     0     0
SMALL
USER_CHARGES

@<TRIPOS>ATOM
      1 C1         -1.1707    1.8717   -0.9749 C.ar      1 <0>        -0.1075
      2 C2          0.0502    1.2023   -0.9814 C.ar      1 <0>        -0.1241
      3 C3          1.2082    1.8493   -0.6629 C.ar      1 <0>        -0.0854
      4 C4          1.1653    3.2046   -0.3193 C.ar      1 <0>        -0.0543
      5 C5         -0.0790    3.8843   -0.3072 C.ar      1 <0>        -0.0577
      6 C6         -1.2470    3.1919   -0.6387 C.ar      1 <0>        -0.1220
      7 C7         -0.0767    5.2568    0.0473 C.ar      1 <0>        -0.0148
      8 N1          1.0728    5.8376    0.3480 N.ar      1 <0>        -0.0443
      9 N2          2.1961    5.2222    0.3367 N.ar      1 <0>        -0.0997
     10 C8          2.3218    3.9430    0.0230 C.ar      1 <0>         0.0389
     11 N3          3.5653    3.3371    0.0299 N.pl3     1 <0>        -0.2099
     12 C9          4.1583    3.3667    1.3748 C.3       1 <0>        -0.1097
     13 C10         5.5030    2.6352    1.3498 C.3       1 <0>        -0.0131
     14 O1          6.3513    3.2408    0.3706 O.3       1 <0>        -0.2764
     15 C11         5.8049    3.2289   -0.9510 C.3       1 <0>        -0.0129
     16 C12         4.4633    3.9664   -0.9494 C.3       1 <0>        -0.1096
     17 C13        -1.3395    6.0271    0.0798 C.ar      1 <0>        -0.0105
     18 C14        -1.3894    7.3095   -0.4712 C.ar      1 <0>        -0.0981
     19 C15        -2.5652    8.0240   -0.4463 C.ar      1 <0>        -0.1095
     20 C16        -3.7064    7.4709    0.1407 C.ar      1 <0>        -0.1200
     21 C17        -3.6545    6.1900    0.6971 C.ar      1 <0>        -0.0711
     22 C18        -2.4797    5.4739    0.6666 C.ar      1 <0>        -0.1300
     23 C19        -4.9668    8.2400    0.1736 C.2       1 <0>         0.3481
     24 O2         -5.9594    7.7588    0.6847 O.2       1 <0>        -0.3670
     25 N4         -5.0167    9.4754   -0.3630 N.am      1 <0>        -0.4270
     26 H1         -2.0718    1.3365   -1.2355 H         1 <0>         0.1361
     27 H2          0.0815    0.1560   -1.2469 H         1 <0>         0.1362
     28 H3          2.1495    1.3201   -0.6763 H         1 <0>         0.1579
     29 H4         -2.2008    3.6985   -0.6332 H         1 <0>         0.1525
     30 H5          4.3123    4.4011    1.6820 H         1 <0>         0.0960
     31 H6          3.4885    2.8731    2.0789 H         1 <0>         0.1016
     32 H7          5.3428    1.5877    1.0948 H         1 <0>         0.0748
     33 H8          5.9733    2.7032    2.3308 H         1 <0>         0.1134
     34 H9          5.6535    2.1986   -1.2729 H         1 <0>         0.0749
     35 H10         6.4929    3.7264   -1.6345 H         1 <0>         0.1130
     36 H11         4.0160    3.9105   -1.9418 H         1 <0>         0.1008
     37 H12         4.6215    5.0106   -0.6798 H         1 <0>         0.0955
     38 H13        -0.5062    7.7386   -0.9210 H         1 <0>         0.1510
     39 H14        -2.6049    9.0139   -0.8764 H         1 <0>         0.1290
     40 H15        -4.5361    5.7623    1.1512 H         1 <0>         0.1608
     41 H16        -2.4395    4.4841    1.0968 H         1 <0>         0.1446
     42 H17        -4.2247    9.8593   -0.7708 H         1 <0>         0.2167
     43 H18        -5.8445    9.9805   -0.3414 H         1 <0>         0.2327
@<TRIPOS>BOND
     1    1    6 ar
     2    1    2 ar
     3    1   26 1
     4    2    3 ar
     5    2   27 1
     6    3    4 ar
     7    3   28 1
     8    4   10 ar
     9    4    5 ar
    10    5    6 ar
    11    5    7 ar
    12    6   29 1
    13    7    8 ar
    14    7   17 1
    15    8    9 ar
    16    9   10 ar
    17   10   11 1
    18   11   16 1
    19   11   12 1
    20   12   13 1
    21   12   30 1
    22   12   31 1
    23   13   14 1
    24   13   32 1
    25   13   33 1
    26   14   15 1
    27   15   16 1
    28   15   34 1
    29   15   35 1
    30   16   36 1
    31   16   37 1
    32   17   22 ar
    33   17   18 ar
    34   18   19 ar
    35   18   38 1
    36   19   20 ar
    37   19   39 1
    38   20   21 ar
    39   20   23 1
    40   21   22 ar
    41   21   40 1
    42   22   41 1
    43   23   24 2
    44   23   25 am
    45   25   42 1
    46   25   43 1
@<TRIPOS>MOLECULE
ZINC00288284
   39    40     0     0     0
SMALL
USER_CHARGES

@<TRIPOS>ATOM
      1 C1          3.2578  -10.3907   -0.2296 C.3       1 <0>        -0.2055
      2 C2          3.1083   -8.8921   -0.1772 C.2       1 <0>         0.3024
      3 O1          3.8832   -8.2300    0.4716 O.2       1 <0>        -0.3407
      4 O2          2.1139   -8.2926   -0.8514 O.3       1 <0>        -0.1978
      5 C3          2.1023   -6.9341   -0.8547 C.ar      1 <0>         0.0549
      6 C4          1.2743   -6.2467    0.0228 C.ar      1 <0>        -0.1040
      7 C5          1.2617   -4.8693    0.0276 C.ar      1 <0>        -0.1037
      8 C6          2.0778   -4.1594   -0.8604 C.ar      1 <0>        -0.0372
      9 C7          2.9122   -4.8528   -1.7441 C.ar      1 <0>        -0.1881
     10 C8          2.9222   -6.2341   -1.7388 C.ar      1 <0>         0.0866
     11 O3          3.7314   -6.9113   -2.5963 O.3       1 <0>        -0.2031
     12 C9          4.5443   -6.1304   -3.4746 C.3       1 <0>        -0.0638
     13 C10         2.0629   -2.6892   -0.8607 C.2       1 <0>         0.0037
     14 N1          1.2839   -2.0445   -0.0358 N.2       1 <0>        -0.1598
     15 C11         1.2701   -0.6790   -0.0361 C.ar      1 <0>         0.0192
     16 C12         0.0523    0.0084    0.0037 C.ar      1 <0>        -0.1227
     17 C13         0.0389    1.3739    0.0039 C.ar      1 <0>        -0.0566
     18 C14         1.2421    2.0850   -0.0356 C.ar      1 <0>        -0.1401
     19 C15         2.4595    1.3984   -0.0754 C.ar      1 <0>        -0.0916
     20 C16         2.4737    0.0329   -0.0756 C.ar      1 <0>        -0.1738
     21 C17         1.2272    3.5608   -0.0353 C.2       1 <0>         0.3499
     22 O4          0.1686    4.1581   -0.0008 O.2       1 <0>        -0.3685
     23 N2          2.3868    4.2465   -0.0734 N.am      1 <0>        -0.4289
     24 H1          3.9048  -10.6623   -1.0637 H         1 <0>         0.1152
     25 H2          3.6984  -10.7448    0.7024 H         1 <0>         0.1168
     26 H3          2.2782  -10.8490   -0.3655 H         1 <0>         0.1013
     27 H4          0.6413   -6.7935    0.7060 H         1 <0>         0.1504
     28 H5          0.6194   -4.3373    0.7138 H         1 <0>         0.1625
     29 H6          3.5466   -4.3094   -2.4287 H         1 <0>         0.1411
     30 H7          3.9067   -5.5085   -4.1030 H         1 <0>         0.0680
     31 H8          5.2067   -5.4945   -2.8872 H         1 <0>         0.0705
     32 H9          5.1396   -6.7924   -4.1035 H         1 <0>         0.1120
     33 H10         2.6966   -2.1429   -1.5436 H         1 <0>         0.1126
     34 H11        -0.8771   -0.5408    0.0346 H         1 <0>         0.1505
     35 H12        -0.9014    1.9046    0.0300 H         1 <0>         0.1614
     36 H13         3.3886    1.9481   -0.1056 H         1 <0>         0.1248
     37 H14         3.4141   -0.4974   -0.1060 H         1 <0>         0.1357
     38 H15         3.2313    3.7700   -0.1010 H         1 <0>         0.2151
     39 H16         2.3770    5.2164   -0.0732 H         1 <0>         0.2316
@<TRIPOS>BOND
     1    1    2 1
     2    1   24 1
     3    1   25 1
     4    1   26 1
     5    2    3 2
     6    2    4 1
     7    4    5 1
     8    5   10 ar
     9    5    6 ar
    10    6    7 ar
    11    6   27 1
    12    7    8 ar
    13    7   28 1
    14    8    9 ar
    15    8   13 1
    16    9   10 ar
    17    9   29 1
    18   10   11 1
    19   11   12 1
    20   12   30 1
    21   12   31 1
    22   12   32 1
    23   13   14 2
    24   13   33 1
    25   14   15 1
    26   15   20 ar
    27   15   16 ar
    28   16   17 ar
    29   16   34 1
    30   17   18 ar
    31   17   35 1
    32   18   19 ar
    33   18   21 1
    34   19   20 ar
    35   19   36 1
    36   20   37 1
    37   21   22 2
    38   21   23 am
    39   23   38 1
    40   23   39 1
@<TRIPOS>MOLECULE
ZINC00288904
   42    43     0     0     0
SMALL
USER_CHARGES

@<TRIPOS>ATOM
      1 C1         -1.3855    5.5537   -2.5582 C.3       1 <0>        -0.1956
      2 C2         -1.4790    4.0284   -2.6347 C.3       1 <0>        -0.1404
      3 C3         -0.7983    3.5392   -3.9146 C.3       1 <0>        -0.2062
      4 C4         -0.7929    3.4224   -1.4376 C.2       1 <0>         0.3274
      5 O1         -0.2796    4.1398   -0.6053 O.2       1 <0>        -0.3236
      6 N1         -0.7497    2.0832   -1.2920 N.am      1 <0>        -0.8291
      7 S1          0.0043    1.4173    0.0234 S.o2      1 <0>         2.7497
      8 O2         -0.1416    0.0087   -0.0948 O.2       1 <0>        -0.9166
      9 O3          1.2748    2.0457    0.1246 O.2       1 <0>        -0.8838
     10 C5         -0.9116    1.9006    1.4489 C.ar      1 <0>        -0.7812
     11 C6         -0.5851    3.0671    2.1160 C.ar      1 <0>         0.0125
     12 C7         -1.3046    3.4517    3.2303 C.ar      1 <0>        -0.1564
     13 C8         -2.3499    2.6596    3.6875 C.ar      1 <0>         0.1232
     14 C9         -2.6716    1.4856    3.0186 C.ar      1 <0>        -0.1935
     15 C10        -1.9518    1.1097    1.9015 C.ar      1 <0>        -0.0125
     16 N2         -3.0766    3.0429    4.8192 N.am      1 <0>        -0.3284
     17 C11        -3.2810    4.3497    5.0780 C.2       1 <0>         0.3494
     18 O4         -2.9180    5.1915    4.2796 O.2       1 <0>        -0.3446
     19 C12        -3.9466    4.7594    6.3326 C.ar      1 <0>        -0.1335
     20 C13        -4.3698    3.7950    7.2489 C.ar      1 <0>        -0.1037
     21 C14        -4.9848    4.1845    8.4208 C.ar      1 <0>        -0.1357
     22 C15        -5.1931    5.5269    8.6833 C.ar      1 <0>        -0.1000
     23 C16        -4.7817    6.4875    7.7765 C.ar      1 <0>        -0.1374
     24 C17        -4.1599    6.1120    6.6037 C.ar      1 <0>        -0.0621
     25 H1         -0.3375    5.8534   -2.5498 H         1 <0>         0.0941
     26 H2         -1.8817    5.9920   -3.4241 H         1 <0>         0.0759
     27 H3         -1.8704    5.9022   -1.6464 H         1 <0>         0.0921
     28 H4         -2.5270    3.7287   -2.6432 H         1 <0>         0.1081
     29 H5          0.2497    3.8390   -3.9061 H         1 <0>         0.0918
     30 H6         -0.8650    2.4526   -3.9691 H         1 <0>         0.0698
     31 H7         -1.2946    3.9776   -4.7804 H         1 <0>         0.0869
     32 H8         -1.1602    1.5095   -1.9577 H         1 <0>         0.2525
     33 H9          0.2309    3.6801    1.7627 H         1 <0>         0.1736
     34 H10        -1.0520    4.3651    3.7483 H         1 <0>         0.1684
     35 H11        -3.4841    0.8677    3.3713 H         1 <0>         0.1343
     36 H12        -2.2016    0.1972    1.3807 H         1 <0>         0.1469
     37 H13        -3.4335    2.3683    5.4179 H         1 <0>         0.2373
     38 H14        -4.2121    2.7467    7.0429 H         1 <0>         0.1236
     39 H15        -5.3087    3.4396    9.1326 H         1 <0>         0.1351
     40 H16        -5.6788    5.8262    9.6004 H         1 <0>         0.1345
     41 H17        -4.9473    7.5336    7.9875 H         1 <0>         0.1388
     42 H18        -3.8392    6.8628    5.8967 H         1 <0>         0.1583
@<TRIPOS>BOND
     1    1    2 1
     2    1   25 1
     3    1   26 1
     4    1   27 1
     5    2    3 1
     6    2    4 1
     7    2   28 1
     8    3   29 1
     9    3   30 1
    10    3   31 1
    11    4    5 2
    12    4    6 am
    13    6    7 1
    14    6   32 1
    15    7    8 2
    16    7    9 2
    17    7   10 1
    18   10   15 ar
    19   10   11 ar
    20   11   12 ar
    21   11   33 1
    22   12   13 ar
    23   12   34 1
    24   13   14 ar
    25   13   16 1
    26   14   15 ar
    27   14   35 1
    28   15   36 1
    29   16   17 am
    30   16   37 1
    31   17   18 2
    32   17   19 1
    33   19   24 ar
    34   19   20 ar
    35   20   21 ar
    36   20   38 1
    37   21   22 ar
    38   21   39 1
    39   22   23 ar
    40   22   40 1
    41   23   24 ar
    42   23   41 1
    43   24   42 1
@<TRIPOS>MOLECULE
ZINC00288907
   39    40     0     0     0
SMALL
USER_CHARGES

@<TRIPOS>ATOM
      1 C1         -2.9506    3.6084   -2.6466 C.3       1 <0>        -0.2070
      2 C2         -1.4796    4.0288   -2.6348 C.3       1 <0>        -0.1404
      3 C3         -1.3857    5.5540   -2.5582 C.3       1 <0>        -0.1956
      4 C4         -0.7934    3.4226   -1.4379 C.2       1 <0>         0.3276
      5 O1         -0.2798    4.1398   -0.6055 O.2       1 <0>        -0.3240
      6 N1         -0.7504    2.0834   -1.2923 N.am      1 <0>        -0.8290
      7 S1          0.0036    1.4172    0.0230 S.o2      1 <0>         2.7497
      8 O2         -0.1426    0.0087   -0.0953 O.2       1 <0>        -0.9159
      9 O3          1.2742    2.0454    0.1241 O.2       1 <0>        -0.8832
     10 C5         -0.9121    1.9006    1.4486 C.ar      1 <0>        -0.7797
     11 C6         -0.5852    3.0669    2.1157 C.ar      1 <0>         0.0128
     12 C7         -1.3040    3.4512    3.2307 C.ar      1 <0>        -0.1572
     13 C8         -2.3494    2.6592    3.6880 C.ar      1 <0>         0.1209
     14 C9         -2.6718    1.4856    3.0187 C.ar      1 <0>        -0.1906
     15 C10        -1.9523    1.1098    1.9013 C.ar      1 <0>        -0.0127
     16 N2         -3.0755    3.0423    4.8199 N.am      1 <0>        -0.3219
     17 C11        -3.2797    4.3491    5.0790 C.2       1 <0>         0.3943
     18 O4         -2.9163    5.1920    4.2798 O.2       1 <0>        -0.3324
     19 C12        -3.9395    4.7552    6.3238 C.2       1 <0>        -0.1307
     20 C13        -4.2069    6.0379    6.7088 C.2       1 <0>        -0.1164
     21 C14        -4.8425    5.9601    7.9579 C.2       1 <0>        -0.2329
     22 C15        -4.9342    4.6501    8.2765 C.2       1 <0>        -0.0673
     23 O5         -4.3942    3.9270    7.2868 O.3       1 <0>        -0.0573
     24 H1         -3.4354    3.9569   -1.7347 H         1 <0>         0.0893
     25 H2         -3.4469    4.0468   -3.5123 H         1 <0>         0.0883
     26 H3         -3.0175    2.5218   -2.7011 H         1 <0>         0.0689
     27 H4         -0.9948    3.6803   -3.5467 H         1 <0>         0.1108
     28 H5         -0.3377    5.8535   -2.5499 H         1 <0>         0.0935
     29 H6         -1.8820    5.9925   -3.4240 H         1 <0>         0.0761
     30 H7         -1.8705    5.9025   -1.6463 H         1 <0>         0.0929
     31 H8         -1.1612    1.5098   -1.9580 H         1 <0>         0.2527
     32 H9          0.2306    3.6800    1.7623 H         1 <0>         0.1741
     33 H10        -1.0509    4.3643    3.7488 H         1 <0>         0.1676
     34 H11        -3.4843    0.8678    3.3715 H         1 <0>         0.1362
     35 H12        -2.2027    0.1976    1.3802 H         1 <0>         0.1476
     36 H13        -3.4322    2.3676    5.4186 H         1 <0>         0.2453
     37 H14        -3.9740    6.9378    6.1590 H         1 <0>         0.1778
     38 H15        -5.1925    6.7910    8.5524 H         1 <0>         0.1644
     39 H16        -5.3748    4.2516    9.1785 H         1 <0>         0.2033
@<TRIPOS>BOND
     1    1    2 1
     2    1   24 1
     3    1   25 1
     4    1   26 1
     5    2    3 1
     6    2    4 1
     7    2   27 1
     8    3   28 1
     9    3   29 1
    10    3   30 1
    11    4    5 2
    12    4    6 am
    13    6    7 1
    14    6   31 1
    15    7    8 2
    16    7    9 2
    17    7   10 1
    18   10   15 ar
    19   10   11 ar
    20   11   12 ar
    21   11   32 1
    22   12   13 ar
    23   12   33 1
    24   13   14 ar
    25   13   16 1
    26   14   15 ar
    27   14   34 1
    28   15   35 1
    29   16   17 am
    30   16   36 1
    31   17   18 2
    32   17   19 1
    33   19   23 1
    34   19   20 2
    35   20   21 1
    36   20   37 1
    37   21   22 2
    38   21   38 1
    39   22   23 1
    40   22   39 1
@<TRIPOS>MOLECULE
ZINC00288913
   39    40     0     0     0
SMALL
USER_CHARGES

@<TRIPOS>ATOM
      1 C1         -2.0823    6.1695   -3.7735 C.3       1 <0>        -0.2137
      2 C2         -1.3857    5.5540   -2.5582 C.3       1 <0>        -0.1513
      3 C3         -1.4796    4.0288   -2.6348 C.3       1 <0>        -0.1877
      4 C4         -0.7934    3.4226   -1.4379 C.2       1 <0>         0.3233
      5 O1         -0.2798    4.1398   -0.6055 O.2       1 <0>        -0.3251
      6 N1         -0.7504    2.0834   -1.2923 N.am      1 <0>        -0.8307
      7 S1          0.0036    1.4172    0.0230 S.o2      1 <0>         2.7498
      8 O2         -0.1426    0.0087   -0.0953 O.2       1 <0>        -0.9157
      9 O3          1.2742    2.0454    0.1241 O.2       1 <0>        -0.8830
     10 C5         -0.9121    1.9006    1.4486 C.ar      1 <0>        -0.7800
     11 C6         -0.5852    3.0669    2.1157 C.ar      1 <0>         0.0128
     12 C7         -1.3040    3.4512    3.2307 C.ar      1 <0>        -0.1571
     13 C8         -2.3494    2.6592    3.6880 C.ar      1 <0>         0.1211
     14 C9         -2.6718    1.4856    3.0187 C.ar      1 <0>        -0.1904
     15 C10        -1.9523    1.1098    1.9013 C.ar      1 <0>        -0.0126
     16 N2         -3.0755    3.0423    4.8199 N.am      1 <0>        -0.3220
     17 C11        -3.2797    4.3491    5.0790 C.2       1 <0>         0.3943
     18 O4         -2.9163    5.1920    4.2798 O.2       1 <0>        -0.3323
     19 C12        -3.9395    4.7552    6.3238 C.2       1 <0>        -0.1307
     20 C13        -4.2069    6.0379    6.7088 C.2       1 <0>        -0.1164
     21 C14        -4.8425    5.9601    7.9579 C.2       1 <0>        -0.2329
     22 C15        -4.9342    4.6501    8.2765 C.2       1 <0>        -0.0673
     23 O5         -4.3942    3.9270    7.2868 O.3       1 <0>        -0.0573
     24 H1         -1.5975    5.8210   -4.6854 H         1 <0>         0.0716
     25 H2         -3.1303    5.8700   -3.7818 H         1 <0>         0.0709
     26 H3         -2.0154    7.2561   -3.7189 H         1 <0>         0.0819
     27 H4         -1.8705    5.9025   -1.6463 H         1 <0>         0.0995
     28 H5         -0.3377    5.8535   -2.5499 H         1 <0>         0.1010
     29 H6         -0.9948    3.6803   -3.5467 H         1 <0>         0.1069
     30 H7         -2.5276    3.7293   -2.6432 H         1 <0>         0.1044
     31 H8         -1.1612    1.5098   -1.9580 H         1 <0>         0.2519
     32 H9          0.2306    3.6800    1.7623 H         1 <0>         0.1741
     33 H10        -1.0509    4.3643    3.7488 H         1 <0>         0.1677
     34 H11        -3.4843    0.8678    3.3715 H         1 <0>         0.1363
     35 H12        -2.2027    0.1976    1.3802 H         1 <0>         0.1477
     36 H13        -3.4322    2.3676    5.4186 H         1 <0>         0.2453
     37 H14        -3.9740    6.9378    6.1590 H         1 <0>         0.1778
     38 H15        -5.1925    6.7910    8.5524 H         1 <0>         0.1644
     39 H16        -5.3748    4.2516    9.1785 H         1 <0>         0.2033
@<TRIPOS>BOND
     1    1    2 1
     2    1   24 1
     3    1   25 1
     4    1   26 1
     5    2    3 1
     6    2   27 1
     7    2   28 1
     8    3    4 1
     9    3   29 1
    10    3   30 1
    11    4    5 2
    12    4    6 am
    13    6    7 1
    14    6   31 1
    15    7    8 2
    16    7    9 2
    17    7   10 1
    18   10   15 ar
    19   10   11 ar
    20   11   12 ar
    21   11   32 1
    22   12   13 ar
    23   12   33 1
    24   13   14 ar
    25   13   16 1
    26   14   15 ar
    27   14   34 1
    28   15   35 1
    29   16   17 am
    30   16   36 1
    31   17   18 2
    32   17   19 1
    33   19   23 1
    34   19   20 2
    35   20   21 1
    36   20   37 1
    37   21   22 2
    38   21   38 1
    39   22   23 1
    40   22   39 1
@<TRIPOS>MOLECULE
ZINC00289930
   40    42     0     0     0
SMALL
USER_CHARGES

@<TRIPOS>ATOM
      1 C1          1.2491    5.8710    0.0098 C.3       1 <0>        -0.0738
      2 N1         -0.0388    5.1726    0.0179 N.am      1 <0>        -0.2453
      3 C2         -0.0549    3.7931    0.0049 C.ar      1 <0>         0.1294
      4 C3          1.1400    3.0783   -0.0156 C.ar      1 <0>        -0.1932
      5 C4          1.1161    1.7007   -0.0281 C.ar      1 <0>        -0.0632
      6 C5         -0.0899    1.0136   -0.0204 C.ar      1 <0>        -0.1750
      7 C6         -1.2746    1.6931   -0.0055 C.ar      1 <0>        -0.0468
      8 C7         -1.2741    3.0927    0.0126 C.ar      1 <0>        -0.1253
      9 C8         -2.5363    3.8391    0.0337 C.2       1 <0>         0.2086
     10 C9         -2.4795    5.2350    0.0460 C.2       1 <0>        -0.3399
     11 C10        -1.1733    5.8925    0.0373 C.2       1 <0>         0.3723
     12 O1         -1.1129    7.1091    0.0475 O.2       1 <0>        -0.3462
     13 C11        -3.7130    6.0300    0.0677 C.2       1 <0>         0.3653
     14 O2         -4.0888    6.5977   -0.9408 O.2       1 <0>        -0.3335
     15 N2         -4.4295    6.1314    1.2048 N.am      1 <0>        -0.3127
     16 C12        -5.6573    6.7869    1.1976 C.ar      1 <0>         0.1337
     17 C13        -6.3944    6.8753    0.0238 C.ar      1 <0>        -0.1592
     18 C14        -7.6138    7.5215    0.0201 C.ar      1 <0>        -0.0795
     19 C15        -8.1071    8.0952    1.1811 C.ar      1 <0>        -0.1629
     20 C16        -7.3874    8.0220    2.3538 C.ar      1 <0>        -0.0820
     21 C17        -6.1539    7.3666    2.3746 C.ar      1 <0>        -0.1791
     22 C18        -5.3781    7.2850    3.6265 C.2       1 <0>         0.3627
     23 O3         -4.2633    6.7995    3.6203 O.2       1 <0>        -0.3912
     24 N3         -5.9049    7.7485    4.7772 N.am      1 <0>        -0.4230
     25 O4         -3.7217    3.1944    0.0403 O.3       1 <0>        -0.2486
     26 H1          1.5567    6.0540   -1.0197 H         1 <0>         0.0878
     27 H2          1.1502    6.8216    0.5340 H         1 <0>         0.1216
     28 H3          1.9985    5.2569    0.5093 H         1 <0>         0.0848
     29 H4          2.0840    3.6029   -0.0221 H         1 <0>         0.1455
     30 H5          2.0450    1.1500   -0.0443 H         1 <0>         0.1361
     31 H6         -0.0916   -0.0664   -0.0307 H         1 <0>         0.1378
     32 H7         -2.2092    1.1519   -0.0037 H         1 <0>         0.1510
     33 H8         -4.0895    5.7475    2.0281 H         1 <0>         0.2721
     34 H9         -6.0146    6.4346   -0.8861 H         1 <0>         0.1738
     35 H10        -8.1850    7.5844   -0.8943 H         1 <0>         0.1367
     36 H11        -9.0604    8.6026    1.1666 H         1 <0>         0.1326
     37 H12        -7.7762    8.4712    3.2557 H         1 <0>         0.1246
     38 H13        -6.7942    8.1358    4.7821 H         1 <0>         0.2187
     39 H14        -5.3947    7.6949    5.6004 H         1 <0>         0.2322
     40 H15        -4.4884    3.7803   -0.0235 H         1 <0>         0.2533
@<TRIPOS>BOND
     1    1    2 1
     2    1   26 1
     3    1   27 1
     4    1   28 1
     5    2   11 am
     6    2    3 1
     7    3    8 ar
     8    3    4 ar
     9    4    5 ar
    10    4   29 1
    11    5    6 ar
    12    5   30 1
    13    6    7 ar
    14    6   31 1
    15    7    8 ar
    16    7   32 1
    17    8    9 1
    18    9   10 2
    19    9   25 1
    20   10   11 1
    21   10   13 1
    22   11   12 2
    23   13   14 2
    24   13   15 am
    25   15   16 1
    26   15   33 1
    27   16   21 ar
    28   16   17 ar
    29   17   18 ar
    30   17   34 1
    31   18   19 ar
    32   18   35 1
    33   19   20 ar
    34   19   36 1
    35   20   21 ar
    36   20   37 1
    37   21   22 1
    38   22   23 2
    39   22   24 am
    40   24   38 1
    41   24   39 1
    42   25   40 1
@<TRIPOS>MOLECULE
ZINC00290896
   41    43     0     0     0
SMALL
USER_CHARGES

@<TRIPOS>ATOM
      1 C1         -0.0112    1.0754    0.0930 C.ar      1 <0>        -0.1466
      2 C2         -1.2210    1.7483    0.1191 C.ar      1 <0>        -0.1030
      3 C3         -1.2522    3.1299    0.1319 C.ar      1 <0>        -0.1627
      4 C4         -0.0701    3.8518    0.1079 C.ar      1 <0>         0.1126
      5 C5          1.1568    3.1749    0.0761 C.ar      1 <0>        -0.0739
      6 C6          1.1749    1.7782    0.0689 C.ar      1 <0>        -0.0975
      7 C7          2.4206    3.9325    0.0509 C.2       1 <0>        -0.1223
      8 N1          2.3995    5.2306    0.0578 N.2       1 <0>         0.0331
      9 N2          3.6010    5.9508    0.0339 N.am      1 <0>        -0.3333
     10 C8          3.5791    7.2984    0.0410 C.2       1 <0>         0.3613
     11 O1          2.5166    7.8891    0.0681 O.2       1 <0>        -0.3063
     12 C9          4.8466    8.0582    0.0157 C.ar      1 <0>        -0.1001
     13 C10         6.0683    7.3823   -0.0097 C.ar      1 <0>        -0.1386
     14 C11         7.2499    8.0940   -0.0376 C.ar      1 <0>        -0.1110
     15 C12         7.2300    9.4765   -0.0304 C.ar      1 <0>        -0.1565
     16 C13         6.0197   10.1585   -0.0003 C.ar      1 <0>         0.0799
     17 C14         4.8267    9.4529    0.0230 C.ar      1 <0>        -0.1003
     18 N3          6.0052   11.5580    0.0069 N.am      1 <0>        -0.2855
     19 C15         7.2045   12.3981    0.1065 C.3       1 <0>        -0.0241
     20 C16         6.6941   13.7987    0.5116 C.3       1 <0>        -0.1774
     21 C17         5.2458   13.7752   -0.0296 C.3       1 <0>        -0.1976
     22 C18         4.8915   12.3054   -0.0823 C.2       1 <0>         0.3101
     23 O2          3.7662   11.8653   -0.1870 O.2       1 <0>        -0.3269
     24 O3         -0.0999    5.2095    0.1157 O.3       1 <0>        -0.2648
     25 H1          0.0034   -0.0045    0.0870 H         1 <0>         0.1321
     26 H2         -2.1455    1.1902    0.1337 H         1 <0>         0.1324
     27 H3         -2.1997    3.6476    0.1564 H         1 <0>         0.1441
     28 H4          2.1164    1.2497    0.0440 H         1 <0>         0.1308
     29 H5          3.3643    3.4079    0.0268 H         1 <0>         0.1133
     30 H6          4.4486    5.4796    0.0122 H         1 <0>         0.2062
     31 H7          6.0881    6.3024   -0.0109 H         1 <0>         0.1220
     32 H8          8.1937    7.5695   -0.0610 H         1 <0>         0.1334
     33 H9          8.1583   10.0281   -0.0478 H         1 <0>         0.1318
     34 H10         3.8851    9.9812    0.0464 H         1 <0>         0.2088
     35 H11         7.8771   12.0064    0.8696 H         1 <0>         0.0968
     36 H12         7.7126   12.4458   -0.8567 H         1 <0>         0.0910
     37 H13         6.7038   13.9191    1.5949 H         1 <0>         0.1027
     38 H14         7.2789   14.5817    0.0289 H         1 <0>         0.1017
     39 H15         4.5771   14.3077    0.6467 H         1 <0>         0.1238
     40 H16         5.2044   14.2118   -1.0275 H         1 <0>         0.1195
     41 H17        -0.1289    5.6073   -0.7652 H         1 <0>         0.2413
@<TRIPOS>BOND
     1    1    6 ar
     2    1    2 ar
     3    1   25 1
     4    2    3 ar
     5    2   26 1
     6    3    4 ar
     7    3   27 1
     8    4    5 ar
     9    4   24 1
    10    5    6 ar
    11    5    7 1
    12    6   28 1
    13    7    8 2
    14    7   29 1
    15    8    9 1
    16    9   10 am
    17    9   30 1
    18   10   11 2
    19   10   12 1
    20   12   17 ar
    21   12   13 ar
    22   13   14 ar
    23   13   31 1
    24   14   15 ar
    25   14   32 1
    26   15   16 ar
    27   15   33 1
    28   16   17 ar
    29   16   18 1
    30   17   34 1
    31   18   22 am
    32   18   19 1
    33   19   20 1
    34   19   35 1
    35   19   36 1
    36   20   21 1
    37   20   37 1
    38   20   38 1
    39   21   22 1
    40   21   39 1
    41   21   40 1
    42   22   23 2
    43   24   41 1
@<TRIPOS>MOLECULE
ZINC00290924
   41    43     0     0     0
SMALL
USER_CHARGES

@<TRIPOS>ATOM
      1 C1         -0.0133    1.0765   -0.0421 C.ar      1 <0>        -0.1461
      2 C2         -1.2230    1.7493   -0.0155 C.ar      1 <0>        -0.1030
      3 C3         -1.2541    3.1307    0.0152 C.ar      1 <0>        -0.1629
      4 C4         -0.0717    3.8524    0.0080 C.ar      1 <0>         0.1117
      5 C5          1.1553    3.1757   -0.0248 C.ar      1 <0>        -0.0736
      6 C6          1.1732    1.7792   -0.0497 C.ar      1 <0>        -0.0970
      7 C7          2.4194    3.9332   -0.0323 C.2       1 <0>        -0.1214
      8 N1          2.3985    5.2310   -0.0090 N.2       1 <0>         0.0309
      9 N2          3.6002    5.9512   -0.0161 N.am      1 <0>        -0.3320
     10 C8          3.5786    7.2985    0.0080 C.2       1 <0>         0.3673
     11 O1          2.5158    7.8893    0.0360 O.2       1 <0>        -0.3257
     12 C9          4.8442    8.0569    0.0005 C.ar      1 <0>        -0.1604
     13 C10         6.0666    7.3796   -0.0259 C.ar      1 <0>        -0.0796
     14 C11         7.2454    8.0905   -0.0392 C.ar      1 <0>        -0.1743
     15 C12         7.2212    9.4814   -0.0142 C.ar      1 <0>         0.1106
     16 C13         6.0064   10.1588    0.0184 C.ar      1 <0>        -0.1898
     17 C14         4.8236    9.4543    0.0255 C.ar      1 <0>        -0.0374
     18 N3          8.4174   10.1982   -0.0223 N.am      1 <0>        -0.2815
     19 C15         8.5063   11.6598   -0.1214 C.3       1 <0>        -0.0260
     20 C16         9.9666   11.9573   -0.5279 C.3       1 <0>        -0.1774
     21 C17        10.7045   10.7103    0.0122 C.3       1 <0>        -0.1984
     22 C18         9.6369    9.6397    0.0655 C.2       1 <0>         0.3139
     23 O2          9.8504    8.4504    0.1697 O.2       1 <0>        -0.3398
     24 O3         -0.1012    5.2100    0.0329 O.3       1 <0>        -0.2653
     25 H1          0.0012   -0.0033   -0.0614 H         1 <0>         0.1325
     26 H2         -2.1478    1.1913   -0.0145 H         1 <0>         0.1324
     27 H3         -2.2016    3.6483    0.0404 H         1 <0>         0.1437
     28 H4          2.1147    1.2507   -0.0754 H         1 <0>         0.1316
     29 H5          3.3631    3.4086   -0.0572 H         1 <0>         0.1145
     30 H6          4.4479    5.4800   -0.0385 H         1 <0>         0.2073
     31 H7          6.0861    6.2999   -0.0404 H         1 <0>         0.1271
     32 H8          8.1902    7.5678   -0.0648 H         1 <0>         0.1862
     33 H9          5.9912   11.2385    0.0377 H         1 <0>         0.1360
     34 H10         3.8809    9.9807    0.0501 H         1 <0>         0.1599
     35 H11         7.8200   12.0286   -0.8837 H         1 <0>         0.1004
     36 H12         8.2822   12.1175    0.8421 H         1 <0>         0.0944
     37 H13        10.0631   12.0289   -1.6112 H         1 <0>         0.1030
     38 H14        10.3289   12.8647   -0.0447 H         1 <0>         0.1036
     39 H15        11.5073   10.4190   -0.6651 H         1 <0>         0.1232
     40 H16        11.0992   10.9029    1.0098 H         1 <0>         0.1209
     41 H17        -0.1246    5.6190   -0.8430 H         1 <0>         0.2402
@<TRIPOS>BOND
     1    1    6 ar
     2    1    2 ar
     3    1   25 1
     4    2    3 ar
     5    2   26 1
     6    3    4 ar
     7    3   27 1
     8    4    5 ar
     9    4   24 1
    10    5    6 ar
    11    5    7 1
    12    6   28 1
    13    7    8 2
    14    7   29 1
    15    8    9 1
    16    9   10 am
    17    9   30 1
    18   10   11 2
    19   10   12 1
    20   12   17 ar
    21   12   13 ar
    22   13   14 ar
    23   13   31 1
    24   14   15 ar
    25   14   32 1
    26   15   16 ar
    27   15   18 1
    28   16   17 ar
    29   16   33 1
    30   17   34 1
    31   18   22 am
    32   18   19 1
    33   19   20 1
    34   19   35 1
    35   19   36 1
    36   20   21 1
    37   20   37 1
    38   20   38 1
    39   21   22 1
    40   21   39 1
    41   21   40 1
    42   22   23 2
    43   24   41 1
@<TRIPOS>MOLECULE
ZINC00291524
   41    42     0     0     0
SMALL
USER_CHARGES

@<TRIPOS>ATOM
      1 C1          2.3351    1.0315   -0.7734 C.3       1 <0>        -0.2362
      2 C2          0.9244    1.5612   -0.7588 C.2       1 <0>         0.3007
      3 O1          0.6308    2.5233   -1.4364 O.2       1 <0>        -0.3441
      4 N1         -0.0111    0.9658    0.0074 N.am      1 <0>        -0.3332
      5 C3         -1.2924    1.5197    0.1041 C.ar      1 <0>         0.1182
      6 C4         -1.4604    2.8974    0.0555 C.ar      1 <0>        -0.1533
      7 C5         -2.7270    3.4407    0.1454 C.ar      1 <0>        -0.0130
      8 C6         -3.8260    2.6150    0.2957 C.ar      1 <0>        -0.7806
      9 C7         -3.6616    1.2431    0.3497 C.ar      1 <0>        -0.0069
     10 C8         -2.3982    0.6932    0.2546 C.ar      1 <0>        -0.1887
     11 S1         -5.4394    3.3125    0.4180 S.o2      1 <0>         2.7614
     12 O2         -5.3793    4.5872   -0.2072 O.2       1 <0>        -0.9150
     13 O3         -6.3505    2.3035    0.0046 O.2       1 <0>        -0.9179
     14 N2         -5.7338    3.5867    2.0244 N.pl3     1 <0>        -0.8813
     15 C9         -4.9312    4.5676    2.7592 C.3       1 <0>         0.0416
     16 C10        -5.6124    4.8993    4.0619 C.ar      1 <0>        -0.1415
     17 C11        -6.5153    5.9447    4.1220 C.ar      1 <0>        -0.0672
     18 C12        -7.1452    6.2472    5.3137 C.ar      1 <0>        -0.2230
     19 C13        -6.8628    5.5082    6.4533 C.ar      1 <0>         0.1049
     20 C14        -5.9522    4.4634    6.3917 C.ar      1 <0>        -0.1618
     21 C15        -5.3291    4.1613    5.1963 C.ar      1 <0>        -0.0794
     22 O4         -7.4773    5.8071    7.6280 O.3       1 <0>        -0.2111
     23 C16        -8.4031    6.8957    7.6173 C.3       1 <0>        -0.0636
     24 H1          2.4071    0.1710   -0.1082 H         1 <0>         0.0790
     25 H2          2.5996    0.7302   -1.7870 H         1 <0>         0.1173
     26 H3          3.0191    1.8101   -0.4357 H         1 <0>         0.1163
     27 H4          0.2027    0.1512    0.4885 H         1 <0>         0.2353
     28 H5         -0.6019    3.5430   -0.0567 H         1 <0>         0.1652
     29 H6         -2.8588    4.5118    0.1029 H         1 <0>         0.1530
     30 H7         -4.5220    0.6009    0.4667 H         1 <0>         0.1516
     31 H8         -2.2704   -0.3783    0.2968 H         1 <0>         0.1355
     32 H9         -6.4377    3.0979    2.4788 H         1 <0>         0.2482
     33 H10        -3.9442    4.1514    2.9609 H         1 <0>         0.0778
     34 H11        -4.8284    5.4736    2.1619 H         1 <0>         0.1042
     35 H12        -6.7315    6.5225    3.2355 H         1 <0>         0.1398
     36 H13        -7.8537    7.0611    5.3591 H         1 <0>         0.1384
     37 H14        -5.7303    3.8869    7.2776 H         1 <0>         0.1453
     38 H15        -4.6205    3.3478    5.1477 H         1 <0>         0.1353
     39 H16        -7.8879    7.8077    7.3159 H         1 <0>         0.0694
     40 H17        -9.2066    6.6824    6.9123 H         1 <0>         0.0698
     41 H18        -8.8208    7.0272    8.6154 H         1 <0>         0.1096
@<TRIPOS>BOND
     1    1    2 1
     2    1   24 1
     3    1   25 1
     4    1   26 1
     5    2    3 2
     6    2    4 am
     7    4    5 1
     8    4   27 1
     9    5   10 ar
    10    5    6 ar
    11    6    7 ar
    12    6   28 1
    13    7    8 ar
    14    7   29 1
    15    8    9 ar
    16    8   11 1
    17    9   10 ar
    18    9   30 1
    19   10   31 1
    20   11   12 2
    21   11   13 2
    22   11   14 1
    23   14   15 1
    24   14   32 1
    25   15   16 1
    26   15   33 1
    27   15   34 1
    28   16   21 ar
    29   16   17 ar
    30   17   18 ar
    31   17   35 1
    32   18   19 ar
    33   18   36 1
    34   19   20 ar
    35   19   22 1
    36   20   21 ar
    37   20   37 1
    38   21   38 1
    39   22   23 1
    40   23   39 1
    41   23   40 1
    42   23   41 1
@<TRIPOS>MOLECULE
ZINC00291660
   39    40     0     0     0
SMALL
USER_CHARGES

@<TRIPOS>ATOM
      1 C1          5.6447    6.3609    0.8084 C.3       1 <0>        -0.2389
      2 C2          4.3870    5.5341    0.8834 C.2       1 <0>         0.3013
      3 O1          3.6387    5.6528    1.8306 O.2       1 <0>        -0.3566
      4 N1          4.0936    4.6627   -0.1020 N.am      1 <0>        -0.3287
      5 C3          2.9767    3.8252    0.0132 C.ar      1 <0>         0.0475
      6 C4          3.0202    2.5353   -0.4996 C.ar      1 <0>        -0.1449
      7 C5          1.9197    1.7098   -0.3857 C.ar      1 <0>        -0.1080
      8 C6          0.7689    2.1692    0.2417 C.ar      1 <0>         0.0392
      9 C7          0.7235    3.4612    0.7494 C.ar      1 <0>        -0.1434
     10 C8          1.8261    4.2847    0.6405 C.ar      1 <0>        -0.1103
     11 N2         -0.3472    1.3320    0.3573 N.am      1 <0>        -0.3212
     12 C9         -0.1798    0.0084    0.5488 C.2       1 <0>         0.3530
     13 O2          0.9376   -0.4711    0.5369 O.2       1 <0>        -0.3472
     14 C10        -1.3527   -0.8588    0.7728 C.ar      1 <0>        -0.1785
     15 C11        -2.6373   -0.3087    0.7925 C.ar      1 <0>        -0.0273
     16 C12        -3.7293   -1.1221    0.9965 C.ar      1 <0>        -0.2425
     17 C13        -3.5545   -2.4870    1.1943 C.ar      1 <0>         0.1747
     18 C14        -2.2784   -3.0371    1.1806 C.ar      1 <0>        -0.1580
     19 C15        -1.1813   -2.2312    0.9715 C.ar      1 <0>         0.0262
     20 N3         -2.0980   -4.4912    1.3907 N.pl3     1 <0>         0.5563
     21 O3         -0.9800   -4.9742    1.3786 O.2       1 <0>        -0.3590
     22 O4         -3.0677   -5.2046    1.5758 O.3       1 <0>        -0.3326
     23 O5         -4.6331   -3.2845    1.4007 O.3       1 <0>        -0.1626
     24 C16        -5.9154   -2.6538    1.4024 C.3       1 <0>        -0.0715
     25 H1          5.4337    7.2972    0.2917 H         1 <0>         0.1050
     26 H2          5.9999    6.5742    1.8166 H         1 <0>         0.1194
     27 H3          6.4101    5.8092    0.2626 H         1 <0>         0.0849
     28 H4          4.6558    4.6155   -0.8910 H         1 <0>         0.2320
     29 H5          3.9151    2.1780   -0.9871 H         1 <0>         0.1349
     30 H6          1.9537    0.7066   -0.7841 H         1 <0>         0.1673
     31 H7         -0.1729    3.8201    1.2331 H         1 <0>         0.1320
     32 H8          1.7923    5.2878    1.0393 H         1 <0>         0.1682
     33 H9         -1.2409    1.7039    0.2956 H         1 <0>         0.2295
     34 H10        -2.7736    0.7523    0.6438 H         1 <0>         0.1370
     35 H11        -4.7227   -0.6984    1.0078 H         1 <0>         0.1544
     36 H12        -0.1899   -2.6594    0.9614 H         1 <0>         0.1959
     37 H13        -6.6881   -3.4023    1.5776 H         1 <0>         0.1267
     38 H14        -5.9503   -1.9037    2.1924 H         1 <0>         0.0732
     39 H15        -6.0858   -2.1745    0.4384 H         1 <0>         0.0726
@<TRIPOS>BOND
     1    1    2 1
     2    1   25 1
     3    1   26 1
     4    1   27 1
     5    2    3 2
     6    2    4 am
     7    4    5 1
     8    4   28 1
     9    5   10 ar
    10    5    6 ar
    11    6    7 ar
    12    6   29 1
    13    7    8 ar
    14    7   30 1
    15    8    9 ar
    16    8   11 1
    17    9   10 ar
    18    9   31 1
    19   10   32 1
    20   11   12 am
    21   11   33 1
    22   12   13 2
    23   12   14 1
    24   14   19 ar
    25   14   15 ar
    26   15   16 ar
    27   15   34 1
    28   16   17 ar
    29   16   35 1
    30   17   18 ar
    31   17   23 1
    32   18   19 ar
    33   18   20 1
    34   19   36 1
    35   20   21 2
    36   20   22 1
    37   23   24 1
    38   24   37 1
    39   24   38 1
    40   24   39 1
@<TRIPOS>MOLECULE
ZINC00296088
   44    46     0     0     0
SMALL
USER_CHARGES

@<TRIPOS>ATOM
      1 C1          7.3404   -4.0541   -0.4097 C.ar      1 <0>        -0.1417
      2 C2          7.2818   -2.8641    0.2923 C.ar      1 <0>        -0.1121
      3 C3          6.0820   -2.1911    0.4145 C.ar      1 <0>        -0.1247
      4 C4          4.9335   -2.7108   -0.1686 C.ar      1 <0>         0.0576
      5 C5          4.9947   -3.9091   -0.8681 C.ar      1 <0>        -0.1596
      6 C6          6.1989   -4.5740   -0.9918 C.ar      1 <0>        -0.1121
      7 N1          3.7170   -2.0318   -0.0468 N.am      1 <0>        -0.3233
      8 C7          3.6951   -0.6842   -0.0404 C.2       1 <0>         0.3481
      9 O1          4.7377   -0.0593   -0.0554 O.2       1 <0>        -0.3486
     10 C8          2.4033    0.0338   -0.0150 C.ar      1 <0>        -0.1520
     11 C9          1.2041   -0.6809    0.0023 C.ar      1 <0>        -0.0552
     12 C10         0.0021   -0.0046    0.0255 C.ar      1 <0>        -0.1580
     13 C11        -0.0168    1.3791    0.0311 C.ar      1 <0>        -0.0036
     14 C12         1.1678    2.0933    0.0141 C.ar      1 <0>        -0.7668
     15 C13         2.3770    1.4293   -0.0088 C.ar      1 <0>         0.0303
     16 S1          1.1323    3.8549    0.0209 S.o2      1 <0>         2.7581
     17 O2          2.3600    4.2881   -0.5487 O.2       1 <0>        -0.9049
     18 O3         -0.1299    4.2378   -0.5078 O.2       1 <0>        -0.9163
     19 N2          1.1486    4.3388    1.6045 N.pl3     1 <0>        -0.8753
     20 C14         2.3182    4.0635    2.4427 C.3       1 <0>         0.0381
     21 C15         2.0761    2.7957    3.2877 C.3       1 <0>        -0.1871
     22 C16         2.7486    3.1111    4.6469 C.3       1 <0>        -0.1610
     23 C17         2.4230    4.6117    4.8493 C.3       1 <0>        -0.1646
     24 C18         2.5388    5.2181    3.4356 C.3       1 <0>        -0.1655
     25 H1          8.2799   -4.5784   -0.5037 H         1 <0>         0.1298
     26 H2          8.1753   -2.4603    0.7451 H         1 <0>         0.1343
     27 H3          6.0368   -1.2619    0.9631 H         1 <0>         0.1639
     28 H4          4.1026   -4.3181   -1.3188 H         1 <0>         0.1276
     29 H5          6.2481   -5.5034   -1.5396 H         1 <0>         0.1310
     30 H6          2.8890   -2.5307    0.0330 H         1 <0>         0.2314
     31 H7          1.2175   -1.7608   -0.0021 H         1 <0>         0.1286
     32 H8         -0.9262   -0.5563    0.0389 H         1 <0>         0.1414
     33 H9         -0.9607    1.9037    0.0444 H         1 <0>         0.1543
     34 H10         3.3012    1.9880   -0.0217 H         1 <0>         0.1760
     35 H11         0.3837    4.8046    1.9772 H         1 <0>         0.2454
     36 H12         3.2023    3.9338    1.8184 H         1 <0>         0.1175
     37 H13         1.0079    2.6245    3.4212 H         1 <0>         0.0926
     38 H14         2.5466    1.9305    2.8208 H         1 <0>         0.0885
     39 H15         3.8257    2.9537    4.5906 H         1 <0>         0.0906
     40 H16         2.3104    2.5098    5.4434 H         1 <0>         0.0871
     41 H17         3.1468    5.0717    5.5222 H         1 <0>         0.0876
     42 H18         1.4109    4.7338    5.2351 H         1 <0>         0.0850
     43 H19         3.5303    5.6482    3.2938 H         1 <0>         0.0959
     44 H20         1.7761    5.9837    3.2933 H         1 <0>         0.0914
@<TRIPOS>BOND
     1    1    6 ar
     2    1    2 ar
     3    1   25 1
     4    2    3 ar
     5    2   26 1
     6    3    4 ar
     7    3   27 1
     8    4    5 ar
     9    4    7 1
    10    5    6 ar
    11    5   28 1
    12    6   29 1
    13    7    8 am
    14    7   30 1
    15    8    9 2
    16    8   10 1
    17   10   15 ar
    18   10   11 ar
    19   11   12 ar
    20   11   31 1
    21   12   13 ar
    22   12   32 1
    23   13   14 ar
    24   13   33 1
    25   14   15 ar
    26   14   16 1
    27   15   34 1
    28   16   17 2
    29   16   18 2
    30   16   19 1
    31   19   20 1
    32   19   35 1
    33   20   24 1
    34   20   21 1
    35   20   36 1
    36   21   22 1
    37   21   37 1
    38   21   38 1
    39   22   23 1
    40   22   39 1
    41   22   40 1
    42   23   24 1
    43   23   41 1
    44   23   42 1
    45   24   43 1
    46   24   44 1
@<TRIPOS>MOLECULE
ZINC00296098
   44    45     0     0     0
SMALL
USER_CHARGES

@<TRIPOS>ATOM
      1 C1          1.3795    1.9806   -0.0458 C.3       1 <0>        -0.2378
      2 C2         -0.0532    1.4437   -0.0375 C.3       1 <0>        -0.0131
      3 N1         -0.0257   -0.0211   -0.0379 N.pl3     1 <0>        -0.8359
      4 C3          0.1060   -0.7516    1.2251 C.3       1 <0>        -0.0012
      5 C4         -1.2749   -0.9238    1.8610 C.3       1 <0>        -0.2317
      6 S1         -0.1435   -0.8510   -1.4661 S.o2      1 <0>         2.7618
      7 O1         -0.6427   -2.1423   -1.1454 O.2       1 <0>        -0.9068
      8 O2         -0.7989    0.0125   -2.3848 O.2       1 <0>        -0.9152
      9 C5          1.4951   -1.0807   -2.0719 C.ar      1 <0>        -0.7678
     10 C6          2.0598   -0.1359   -2.9106 C.ar      1 <0>        -0.0064
     11 C7          3.3474   -0.3061   -3.3867 C.ar      1 <0>        -0.1584
     12 C8          4.0735   -1.4258   -3.0361 C.ar      1 <0>        -0.0548
     13 C9          3.5080   -2.3851   -2.1949 C.ar      1 <0>        -0.1523
     14 C10         2.2100   -2.2046   -1.7136 C.ar      1 <0>         0.0320
     15 C11         4.2798   -3.5874   -1.8155 C.2       1 <0>         0.3471
     16 O3          3.7845   -4.4215   -1.0829 O.2       1 <0>        -0.3532
     17 N2          5.5326   -3.7587   -2.2818 N.am      1 <0>        -0.3188
     18 C12         6.2979   -4.8488   -1.8489 C.ar      1 <0>         0.0370
     19 C13         5.6863   -6.0645   -1.5785 C.ar      1 <0>        -0.1145
     20 C14         6.4445   -7.1403   -1.1570 C.ar      1 <0>        -0.1202
     21 C15         7.8109   -7.0056   -0.9928 C.ar      1 <0>        -0.1304
     22 C16         8.4266   -5.7959   -1.2549 C.ar      1 <0>        -0.1368
     23 C17         7.6746   -4.7140   -1.6833 C.ar      1 <0>         0.0347
     24 O4          8.2787   -3.5234   -1.9410 O.3       1 <0>        -0.2962
     25 H1          1.9052    1.6268    0.8411 H         1 <0>         0.0809
     26 H2          1.8948    1.6271   -0.9388 H         1 <0>         0.0731
     27 H3          1.3590    3.0704   -0.0455 H         1 <0>         0.0843
     28 H4         -0.5789    1.7975   -0.9243 H         1 <0>         0.1148
     29 H5         -0.5685    1.7971    0.8556 H         1 <0>         0.0960
     30 H6          0.5428   -1.7318    1.0341 H         1 <0>         0.0981
     31 H7          0.7509   -0.1922    1.9028 H         1 <0>         0.0858
     32 H8         -1.7118    0.0564    2.0521 H         1 <0>         0.0756
     33 H9         -1.9198   -1.4832    1.1833 H         1 <0>         0.0960
     34 H10        -1.1770   -1.4673    2.8007 H         1 <0>         0.0825
     35 H11         1.4942    0.7403   -3.1913 H         1 <0>         0.1536
     36 H12         3.7837    0.4369   -4.0379 H         1 <0>         0.1416
     37 H13         5.0770   -1.5597   -3.4121 H         1 <0>         0.1320
     38 H14         1.7667   -2.9430   -1.0620 H         1 <0>         0.1751
     39 H15         5.9043   -3.1271   -2.9172 H         1 <0>         0.2414
     40 H16         4.6187   -6.1712   -1.7016 H         1 <0>         0.1706
     41 H17         5.9679   -8.0872   -0.9506 H         1 <0>         0.1370
     42 H18         8.3987   -7.8478   -0.6585 H         1 <0>         0.1333
     43 H19         9.4939   -5.6940   -1.1253 H         1 <0>         0.1413
     44 H20         8.3284   -2.9338   -1.1761 H         1 <0>         0.2260
@<TRIPOS>BOND
     1    1    2 1
     2    1   25 1
     3    1   26 1
     4    1   27 1
     5    2    3 1
     6    2   28 1
     7    2   29 1
     8    3    4 1
     9    3    6 1
    10    4    5 1
    11    4   30 1
    12    4   31 1
    13    5   32 1
    14    5   33 1
    15    5   34 1
    16    6    7 2
    17    6    8 2
    18    6    9 1
    19    9   14 ar
    20    9   10 ar
    21   10   11 ar
    22   10   35 1
    23   11   12 ar
    24   11   36 1
    25   12   13 ar
    26   12   37 1
    27   13   14 ar
    28   13   15 1
    29   14   38 1
    30   15   16 2
    31   15   17 am
    32   17   18 1
    33   17   39 1
    34   18   23 ar
    35   18   19 ar
    36   19   20 ar
    37   19   40 1
    38   20   21 ar
    39   20   41 1
    40   21   22 ar
    41   21   42 1
    42   22   23 ar
    43   22   43 1
    44   23   24 1
    45   24   44 1
@<TRIPOS>MOLECULE
ZINC00296101
   44    45     0     0     0
SMALL
USER_CHARGES

@<TRIPOS>ATOM
      1 C1          1.4127    1.9989   -0.0315 C.3       1 <0>        -0.2378
      2 C2         -0.0218    1.4670   -0.0138 C.3       1 <0>        -0.0131
      3 N1          0.0006    0.0021   -0.0118 N.pl3     1 <0>        -0.8357
      4 C3          0.1372   -0.7266    1.2517 C.3       1 <0>        -0.0013
      5 C4         -1.2406   -0.8930    1.8960 C.3       1 <0>        -0.2317
      6 S1         -0.1285   -0.8299   -1.4378 S.o2      1 <0>         2.7618
      7 O1         -0.6302   -2.1188   -1.1120 O.2       1 <0>        -0.9065
      8 O2         -0.7862    0.0344   -2.3542 O.2       1 <0>        -0.9155
      9 C5          1.5057   -1.0663   -2.0528 C.ar      1 <0>        -0.7670
     10 C6          2.0688   -0.1249   -2.8964 C.ar      1 <0>        -0.0062
     11 C7          3.3533   -0.3000   -3.3792 C.ar      1 <0>        -0.1584
     12 C8          4.0775   -1.4216   -3.0309 C.ar      1 <0>        -0.0557
     13 C9          3.5135   -2.3777   -2.1850 C.ar      1 <0>        -0.1513
     14 C10         2.2188   -2.1920   -1.6968 C.ar      1 <0>         0.0327
     15 C11         4.2833   -3.5820   -1.8081 C.2       1 <0>         0.3489
     16 O3          3.7893   -4.4133   -1.0714 O.2       1 <0>        -0.3484
     17 N2          5.5330   -3.7583   -2.2811 N.am      1 <0>        -0.3238
     18 C12         6.2982   -4.8483   -1.8482 C.ar      1 <0>         0.0486
     19 C13         7.6718   -4.7153   -1.6941 C.ar      1 <0>        -0.1481
     20 C14         8.4250   -5.7892   -1.2627 C.ar      1 <0>        -0.1383
     21 C15         7.8113   -7.0039   -0.9937 C.ar      1 <0>         0.0560
     22 C16         6.4397   -7.1389   -1.1520 C.ar      1 <0>        -0.1369
     23 C17         5.6845   -6.0644   -1.5784 C.ar      1 <0>        -0.1118
     24 O4          8.5544   -8.0625   -0.5743 O.3       1 <0>        -0.2904
     25 H1          1.9424    1.6448    0.8529 H         1 <0>         0.0815
     26 H2          1.9215    1.6421   -0.9269 H         1 <0>         0.0727
     27 H3          1.3960    3.0888   -0.0329 H         1 <0>         0.0842
     28 H4         -0.5515    1.8210   -0.8982 H         1 <0>         0.1145
     29 H5         -0.5306    1.8238    0.8816 H         1 <0>         0.0962
     30 H6          0.5695   -1.7087    1.0598 H         1 <0>         0.0984
     31 H7          0.7880   -0.1684    1.9246 H         1 <0>         0.0864
     32 H8         -1.8914   -1.4512    1.2231 H         1 <0>         0.0957
     33 H9         -1.1389   -1.4352    2.8361 H         1 <0>         0.0830
     34 H10        -1.6729    0.0891    2.0879 H         1 <0>         0.0755
     35 H11         1.5045    0.7527   -3.1756 H         1 <0>         0.1538
     36 H12         3.7885    0.4405   -4.0340 H         1 <0>         0.1409
     37 H13         5.0785   -1.5595   -3.4123 H         1 <0>         0.1278
     38 H14         1.7767   -2.9280   -1.0416 H         1 <0>         0.1758
     39 H15         5.9023   -3.1302   -2.9213 H         1 <0>         0.2316
     40 H16         8.1503   -3.7709   -1.9077 H         1 <0>         0.1305
     41 H17         9.4927   -5.6846   -1.1385 H         1 <0>         0.1412
     42 H18         5.9626   -8.0848   -0.9421 H         1 <0>         0.1456
     43 H19         4.6167   -6.1697   -1.7016 H         1 <0>         0.1697
     44 H20         8.8905   -8.6162   -1.2923 H         1 <0>         0.2248
@<TRIPOS>BOND
     1    1    2 1
     2    1   25 1
     3    1   26 1
     4    1   27 1
     5    2    3 1
     6    2   28 1
     7    2   29 1
     8    3    4 1
     9    3    6 1
    10    4    5 1
    11    4   30 1
    12    4   31 1
    13    5   32 1
    14    5   33 1
    15    5   34 1
    16    6    7 2
    17    6    8 2
    18    6    9 1
    19    9   14 ar
    20    9   10 ar
    21   10   11 ar
    22   10   35 1
    23   11   12 ar
    24   11   36 1
    25   12   13 ar
    26   12   37 1
    27   13   14 ar
    28   13   15 1
    29   14   38 1
    30   15   16 2
    31   15   17 am
    32   17   18 1
    33   17   39 1
    34   18   23 ar
    35   18   19 ar
    36   19   20 ar
    37   19   40 1
    38   20   21 ar
    39   20   41 1
    40   21   22 ar
    41   21   24 1
    42   22   23 ar
    43   22   42 1
    44   23   43 1
    45   24   44 1
@<TRIPOS>MOLECULE
ZINC00297622
   40    41     0     0     0
SMALL
USER_CHARGES

@<TRIPOS>ATOM
      1 C1          1.3543   -0.9608   -0.7291 C.3       1 <0>        -0.2371
      2 C2          0.0389   -0.2371   -0.5985 C.2       1 <0>         0.3038
      3 O1         -0.9747   -0.7371   -1.0386 O.2       1 <0>        -0.3524
      4 N1         -0.0111    0.9658    0.0074 N.am      1 <0>        -0.3323
      5 C3         -1.2158    1.6799    0.0485 C.ar      1 <0>         0.0532
      6 C4         -1.2045    3.0662   -0.0285 C.ar      1 <0>        -0.1234
      7 C5         -2.3926    3.7691    0.0064 C.ar      1 <0>        -0.2015
      8 C6         -3.5965    3.0911    0.1303 C.ar      1 <0>         0.0488
      9 C7         -3.6082    1.7064    0.2131 C.ar      1 <0>        -0.1209
     10 C8         -2.4212    1.0020    0.1721 C.ar      1 <0>        -0.0848
     11 O2         -4.7657    3.7841    0.1703 O.3       1 <0>        -0.2054
     12 C9         -4.6795    5.2077    0.0801 C.3       1 <0>        -0.0238
     13 C10        -6.0851    5.8087    0.1419 C.3       1 <0>        -0.0819
     14 N2         -5.9967    7.2681    0.0494 N.ar      1 <0>         0.0063
     15 C11        -5.8839    7.9749    1.1579 C.ar      1 <0>        -0.0075
     16 C12        -5.7926    9.3544    1.1190 C.ar      1 <0>        -0.1325
     17 C13        -5.8308   10.0015   -0.1038 C.ar      1 <0>        -0.0059
     18 C14        -5.9563    9.2250   -1.2617 C.ar      1 <0>        -0.1258
     19 C15        -6.0375    7.8373   -1.1372 C.ar      1 <0>         0.0341
     20 C16        -6.0026    9.8641   -2.5941 C.2       1 <0>         0.3432
     21 O3         -6.1123    9.1800   -3.5928 O.2       1 <0>        -0.3183
     22 N3         -5.9233   11.2052   -2.7013 N.am      1 <0>        -0.4004
     23 H1          1.5070   -1.5971    0.1426 H         1 <0>         0.1125
     24 H2          1.3432   -1.5749   -1.6297 H         1 <0>         0.1261
     25 H3          2.1639   -0.2340   -0.7948 H         1 <0>         0.0873
     26 H4          0.7860    1.3354    0.4184 H         1 <0>         0.2369
     27 H5         -0.2670    3.5944   -0.1206 H         1 <0>         0.1390
     28 H6         -2.3843    4.8471   -0.0587 H         1 <0>         0.1196
     29 H7         -4.5458    1.1792    0.3092 H         1 <0>         0.1537
     30 H8         -2.4305   -0.0761    0.2358 H         1 <0>         0.1845
     31 H9         -4.0845    5.5889    0.9100 H         1 <0>         0.0876
     32 H10        -4.2073    5.4840   -0.8627 H         1 <0>         0.0942
     33 H11        -6.6801    5.4274   -0.6880 H         1 <0>         0.1587
     34 H12        -6.5573    5.5323    1.0846 H         1 <0>         0.1533
     35 H13        -5.8588    7.4676    2.1111 H         1 <0>         0.2106
     36 H14        -5.6966    9.9210    2.0334 H         1 <0>         0.1993
     37 H15        -5.7650   11.0779   -0.1632 H         1 <0>         0.1827
     38 H16        -6.1343    7.2251   -2.0216 H         1 <0>         0.2334
     39 H17        -5.8358   11.7512   -1.9043 H         1 <0>         0.2194
     40 H18        -5.9537   11.6245   -3.5754 H         1 <0>         0.2656
@<TRIPOS>BOND
     1    1    2 1
     2    1   23 1
     3    1   24 1
     4    1   25 1
     5    2    3 2
     6    2    4 am
     7    4    5 1
     8    4   26 1
     9    5   10 ar
    10    5    6 ar
    11    6    7 ar
    12    6   27 1
    13    7    8 ar
    14    7   28 1
    15    8    9 ar
    16    8   11 1
    17    9   10 ar
    18    9   29 1
    19   10   30 1
    20   11   12 1
    21   12   13 1
    22   12   31 1
    23   12   32 1
    24   13   14 1
    25   13   33 1
    26   13   34 1
    27   14   19 ar
    28   14   15 ar
    29   15   16 ar
    30   15   35 1
    31   16   17 ar
    32   16   36 1
    33   17   18 ar
    34   17   37 1
    35   18   19 ar
    36   18   20 1
    37   19   38 1
    38   20   21 2
    39   20   22 am
    40   22   39 1
    41   22   40 1
@<TRIPOS>MOLECULE
ZINC00299763
   41    44     0     0     0
SMALL
USER_CHARGES

@<TRIPOS>ATOM
      1 C1         -6.7058   -3.7382    2.2531 C.ar      1 <0>        -0.1242
      2 C2         -5.4987   -4.4259    2.1441 C.ar      1 <0>        -0.1240
      3 C3         -4.4494   -3.8948    1.4580 C.ar      1 <0>        -0.1195
      4 C4         -4.5821   -2.6365    0.8503 C.ar      1 <0>        -0.0531
      5 C5         -5.8090   -1.9366    0.9600 C.ar      1 <0>        -0.0187
      6 C6         -6.8704   -2.5164    1.6765 C.ar      1 <0>        -0.1149
      7 C7         -5.9437   -0.6772    0.3515 C.ar      1 <0>        -0.1384
      8 C8         -4.8991   -0.1394   -0.3369 C.ar      1 <0>        -0.1075
      9 C9         -3.6872   -0.8145   -0.4465 C.ar      1 <0>        -0.1347
     10 C10        -3.5164   -2.0545    0.1311 C.ar      1 <0>         0.0781
     11 N1         -2.2994   -2.7255    0.0106 N.pl3     1 <0>        -0.2531
     12 C11        -1.1239   -2.0088   -0.1041 C.ar      1 <0>         0.2777
     13 N2          0.0226   -2.6424   -0.3412 N.ar      1 <0>        -0.3420
     14 C12         1.1474   -1.9578   -0.4507 C.ar      1 <0>         0.1791
     15 N3          1.1393   -0.6421   -0.3250 N.ar      1 <0>        -0.3563
     16 C13        -0.0030   -0.0015   -0.0879 C.ar      1 <0>         0.2795
     17 N4         -1.1353   -0.6869    0.0278 N.ar      1 <0>        -0.3671
     18 N5         -0.0105    1.3722    0.0432 N.pl3     1 <0>        -0.3650
     19 C14         2.4431   -2.6791   -0.7191 C.3       1 <0>        -0.0966
     20 H1          2.2718   -3.6628   -0.7739 H         1 <0>         0.1327
     21 C15         3.0661   -2.1715   -2.0361 C.3       1 <0>        -0.1545
     22 C16         4.5876   -2.1553   -1.7415 C.3       1 <0>        -0.1643
     23 C17         4.6334   -1.6983   -0.2623 C.3       1 <0>        -0.2103
     24 C18         3.4391   -2.3813    0.3822 C.2       1 <0>         0.2561
     25 O1          3.3075   -2.6384    1.5548 O.2       1 <0>        -0.2567
     26 H2         -7.5228   -4.1815    2.8030 H         1 <0>         0.1286
     27 H3         -5.3941   -5.3944    2.6104 H         1 <0>         0.1291
     28 H4         -3.5197   -4.4389    1.3817 H         1 <0>         0.1276
     29 H5         -7.8118   -1.9952    1.7686 H         1 <0>         0.1335
     30 H6         -6.8752   -0.1363    0.4295 H         1 <0>         0.1315
     31 H7         -5.0115    0.8290   -0.8014 H         1 <0>         0.1287
     32 H8         -2.8728   -0.3639   -0.9943 H         1 <0>         0.1605
     33 H9         -2.2784   -3.6952    0.0073 H         1 <0>         0.2606
     34 H10         0.8172    1.8716   -0.0375 H         1 <0>         0.2425
     35 H11        -0.8440    1.8388    0.2120 H         1 <0>         0.2423
     36 H12         2.8418   -2.8555   -2.8545 H         1 <0>         0.0934
     37 H13         2.7099   -1.1674   -2.2662 H         1 <0>         0.1099
     38 H14         5.0147   -3.1519   -1.8528 H         1 <0>         0.0907
     39 H15         5.0993   -1.4391   -2.3845 H         1 <0>         0.0949
     40 H16         5.5008   -1.9810    0.1472 H         1 <0>         0.1013
     41 H17         4.5369   -0.6147   -0.1954 H         1 <0>         0.1225
@<TRIPOS>BOND
     1    1    6 ar
     2    1    2 ar
     3    1   26 1
     4    2    3 ar
     5    2   27 1
     6    3    4 ar
     7    3   28 1
     8    4   10 ar
     9    4    5 ar
    10    5    6 ar
    11    5    7 ar
    12    6   29 1
    13    7    8 ar
    14    7   30 1
    15    8    9 ar
    16    8   31 1
    17    9   10 ar
    18    9   32 1
    19   10   11 1
    20   11   12 1
    21   11   33 1
    22   12   17 ar
    23   12   13 ar
    24   13   14 ar
    25   14   15 ar
    26   14   19 1
    27   15   16 ar
    28   16   17 ar
    29   16   18 1
    30   18   34 1
    31   18   35 1
    32   19   20 1
    33   19   24 1
    34   19   21 1
    35   21   22 1
    36   21   36 1
    37   21   37 1
    38   22   23 1
    39   22   38 1
    40   22   39 1
    41   23   24 1
    42   23   40 1
    43   23   41 1
    44   24   25 2
@<TRIPOS>MOLECULE
ZINC00299766
   41    44     0     0     0
SMALL
USER_CHARGES

@<TRIPOS>ATOM
      1 C1          2.1884    0.9713    1.7525 C.ar      1 <0>        -0.1250
      2 C2          0.9634    1.6341    1.7969 C.ar      1 <0>        -0.1244
      3 C3         -0.1484    1.0898    1.2298 C.ar      1 <0>        -0.1208
      4 C4         -0.0628   -0.1564    0.5897 C.ar      1 <0>        -0.0547
      5 C5          1.1822   -0.8308    0.5433 C.ar      1 <0>        -0.0177
      6 C6          2.3086   -0.2382    1.1401 C.ar      1 <0>        -0.1141
      7 C7          1.2697   -2.0783   -0.0974 C.ar      1 <0>        -0.1412
      8 C8          0.1624   -2.6291   -0.6674 C.ar      1 <0>        -0.1055
      9 C9         -1.0658   -1.9764   -0.6284 C.ar      1 <0>        -0.1421
     10 C10        -1.1936   -0.7511   -0.0095 C.ar      1 <0>         0.0767
     11 N1         -2.4296   -0.1053    0.0244 N.pl3     1 <0>        -0.2495
     12 C11        -3.5956   -0.8397   -0.0732 C.ar      1 <0>         0.2775
     13 N2         -4.7701   -0.2181   -0.1532 N.ar      1 <0>        -0.3418
     14 C12        -5.8854   -0.9196   -0.2522 C.ar      1 <0>         0.1798
     15 N3         -5.8409   -2.2405   -0.2612 N.ar      1 <0>        -0.3557
     16 C13        -4.6709   -2.8693   -0.1760 C.ar      1 <0>         0.2790
     17 N4         -3.5467   -2.1672   -0.0819 N.ar      1 <0>        -0.3680
     18 N5         -4.6254   -4.2485   -0.1850 N.pl3     1 <0>        -0.3647
     19 C14        -7.2124   -0.2118   -0.3489 C.3       1 <0>        -0.0970
     20 H1         -7.0635    0.7770   -0.3494 H         1 <0>         0.1329
     21 C15        -8.1131   -0.6159    0.8367 C.3       1 <0>        -0.1545
     22 C16        -9.5291   -0.6988    0.2121 C.3       1 <0>        -0.1639
     23 C17        -9.2379   -1.2873   -1.1908 C.3       1 <0>        -0.2099
     24 C18        -7.9335   -0.6341   -1.6119 C.2       1 <0>         0.2567
     25 O1         -7.5435   -0.4796   -2.7443 O.2       1 <0>        -0.2571
     26 H2          3.0553    1.4242    2.2106 H         1 <0>         0.1284
     27 H3          0.8948    2.5931    2.2887 H         1 <0>         0.1284
     28 H4         -1.0905    1.6165    1.2685 H         1 <0>         0.1253
     29 H5          3.2646   -0.7399    1.1125 H         1 <0>         0.1336
     30 H6          2.2144   -2.6001   -0.1375 H         1 <0>         0.1312
     31 H7          0.2387   -3.5885   -1.1574 H         1 <0>         0.1288
     32 H8         -1.9290   -2.4350   -1.0878 H         1 <0>         0.1719
     33 H9         -2.4704    0.8594    0.1166 H         1 <0>         0.2604
     34 H10        -3.7724   -4.7060   -0.1225 H         1 <0>         0.2420
     35 H11        -5.4464   -4.7604   -0.2537 H         1 <0>         0.2429
     36 H12        -7.8121   -1.5856    1.2333 H         1 <0>         0.1103
     37 H13        -8.0827    0.1443    1.6172 H         1 <0>         0.0939
     38 H14       -10.1683   -1.3678    0.7881 H         1 <0>         0.0952
     39 H15        -9.9759    0.2922    0.1316 H         1 <0>         0.0902
     40 H16        -9.1625   -2.2823   -1.1258 H         1 <0>         0.1158
     41 H17       -10.0370   -1.0286   -1.8854 H         1 <0>         0.1066
@<TRIPOS>BOND
     1    1    6 ar
     2    1    2 ar
     3    1   26 1
     4    2    3 ar
     5    2   27 1
     6    3    4 ar
     7    3   28 1
     8    4   10 ar
     9    4    5 ar
    10    5    6 ar
    11    5    7 ar
    12    6   29 1
    13    7    8 ar
    14    7   30 1
    15    8    9 ar
    16    8   31 1
    17    9   10 ar
    18    9   32 1
    19   10   11 1
    20   11   12 1
    21   11   33 1
    22   12   17 ar
    23   12   13 ar
    24   13   14 ar
    25   14   15 ar
    26   14   19 1
    27   15   16 ar
    28   16   17 ar
    29   16   18 1
    30   18   34 1
    31   18   35 1
    32   19   20 1
    33   19   24 1
    34   19   21 1
    35   21   22 1
    36   21   36 1
    37   21   37 1
    38   22   23 1
    39   22   38 1
    40   22   39 1
    41   23   24 1
    42   23   40 1
    43   23   41 1
    44   24   25 2
@<TRIPOS>MOLECULE
ZINC00302347
   38    40     0     0     0
SMALL
USER_CHARGES

@<TRIPOS>ATOM
      1 C1         -3.8139    9.6712    0.9215 C.3       1 <0>        -0.1837
      2 C2         -3.8023    9.4964    2.4183 C.ar      1 <0>        -0.0545
      3 C3         -3.1145   10.3940    3.2138 C.ar      1 <0>        -0.1292
      4 C4         -3.1042   10.2339    4.5866 C.ar      1 <0>        -0.1121
      5 C5         -3.7817    9.1763    5.1643 C.ar      1 <0>        -0.1337
      6 C6         -4.4737    8.2820    4.3695 C.ar      1 <0>        -0.1032
      7 C7         -4.4796    8.4391    2.9959 C.ar      1 <0>        -0.0887
      8 C8         -5.2297    7.4610    2.1289 C.3       1 <0>        -0.2233
      9 S1         -4.1283    6.1040    1.6582 S.3       1 <0>         0.2606
     10 C9         -5.2316    5.1400    0.6792 C.2       1 <0>        -0.1655
     11 N1         -6.4910    5.4161    0.4168 N.2       1 <0>        -0.1636
     12 N2         -7.0082    4.5022   -0.3219 N.2       1 <0>         0.0042
     13 N3         -6.1375    3.5906   -0.5902 N.2       1 <0>        -0.0343
     14 N4         -4.9420    3.9680    0.0465 N.pl3     1 <0>        -0.1177
     15 C10        -3.7214    3.2852    0.0375 C.ar      1 <0>         0.0754
     16 C11        -3.7045    1.8948    0.0299 C.ar      1 <0>        -0.1193
     17 C12        -2.5044    1.2192    0.0206 C.ar      1 <0>        -0.0548
     18 C13        -1.3031    1.9324    0.0187 C.ar      1 <0>        -0.1239
     19 C14        -1.3239    3.3293    0.0322 C.ar      1 <0>        -0.0897
     20 C15        -2.5278    3.9984    0.0357 C.ar      1 <0>        -0.1435
     21 C16        -0.0144    1.2116    0.0087 C.2       1 <0>         0.3481
     22 O1          0.0021   -0.0041    0.0020 O.2       1 <0>        -0.3607
     23 N5          1.1435    1.9013    0.0014 N.am      1 <0>        -0.4260
     24 H1         -4.6608   10.2948    0.6351 H         1 <0>         0.0928
     25 H2         -2.8871   10.1492    0.6043 H         1 <0>         0.0856
     26 H3         -3.9023    8.6961    0.4425 H         1 <0>         0.0882
     27 H4         -2.5855   11.2204    2.7625 H         1 <0>         0.1346
     28 H5         -2.5672   10.9353    5.2080 H         1 <0>         0.1328
     29 H6         -3.7740    9.0514    6.2371 H         1 <0>         0.1343
     30 H7         -5.0066    7.4584    4.8211 H         1 <0>         0.1366
     31 H8         -5.5848    7.9686    1.2320 H         1 <0>         0.1310
     32 H9         -6.0805    7.0632    2.6821 H         1 <0>         0.1295
     33 H10        -4.6335    1.3441    0.0316 H         1 <0>         0.1622
     34 H11        -2.4920    0.1392    0.0150 H         1 <0>         0.1695
     35 H12        -0.3972    3.8838    0.0357 H         1 <0>         0.1355
     36 H13        -2.5446    5.0782    0.0416 H         1 <0>         0.1555
     37 H14         1.9900    1.4278   -0.0093 H         1 <0>         0.2352
     38 H15         1.1303    2.8712    0.0067 H         1 <0>         0.2158
@<TRIPOS>BOND
     1    1    2 1
     2    1   24 1
     3    1   25 1
     4    1   26 1
     5    2    7 ar
     6    2    3 ar
     7    3    4 ar
     8    3   27 1
     9    4    5 ar
    10    4   28 1
    11    5    6 ar
    12    5   29 1
    13    6    7 ar
    14    6   30 1
    15    7    8 1
    16    8    9 1
    17    8   31 1
    18    8   32 1
    19    9   10 1
    20   10   14 1
    21   10   11 2
    22   11   12 1
    23   12   13 2
    24   13   14 1
    25   14   15 1
    26   15   20 ar
    27   15   16 ar
    28   16   17 ar
    29   16   33 1
    30   17   18 ar
    31   17   34 1
    32   18   19 ar
    33   18   21 1
    34   19   20 ar
    35   19   35 1
    36   20   36 1
    37   21   22 2
    38   21   23 am
    39   23   37 1
    40   23   38 1
@<TRIPOS>MOLECULE
ZINC00302412
   44    45     0     0     0
SMALL
USER_CHARGES

@<TRIPOS>ATOM
      1 C1          2.5052    1.0725   -0.0169 C.3       1 <0>        -0.1750
      2 C2          1.1874    1.8034   -0.0003 C.ar      1 <0>        -0.0667
      3 C3          0.0027    1.0906    0.0007 C.ar      1 <0>        -0.1273
      4 C4         -1.2066    1.7583    0.0102 C.ar      1 <0>        -0.0764
      5 C5         -1.2316    3.1453    0.0303 C.ar      1 <0>         0.0421
      6 C6         -0.0415    3.8583    0.0297 C.ar      1 <0>        -0.0771
      7 C7          1.1652    3.1858    0.0145 C.ar      1 <0>        -0.1274
      8 C8         -0.0650    5.3650    0.0453 C.3       1 <0>        -0.1770
      9 O1         -2.4199    3.8045    0.0457 O.3       1 <0>        -0.1980
     10 C9         -2.9960    4.1330   -1.2200 C.3       1 <0>        -0.0311
     11 C10        -4.3011    4.8555   -1.0056 C.2       1 <0>         0.2980
     12 O2         -4.6986    5.0682    0.1203 O.2       1 <0>        -0.3105
     13 N1         -5.0264    5.2654   -2.0650 N.am      1 <0>        -0.3355
     14 C11        -6.2828    5.8494   -1.8690 C.ar      1 <0>         0.1204
     15 C12        -7.3029    5.6296   -2.7853 C.ar      1 <0>        -0.1884
     16 C13        -8.5438    6.2020   -2.5854 C.ar      1 <0>        -0.0091
     17 C14        -8.7673    7.0036   -1.4810 C.ar      1 <0>        -0.7809
     18 C15        -7.7518    7.2294   -0.5700 C.ar      1 <0>        -0.0090
     19 C16        -6.5105    6.6545   -0.7607 C.ar      1 <0>        -0.1536
     20 S1        -10.3495    7.7385   -1.2338 S.o2      1 <0>         2.7631
     21 O3        -11.2858    6.9327   -1.9362 O.2       1 <0>        -0.9191
     22 O4        -10.4628    8.0000    0.1584 O.2       1 <0>        -0.9153
     23 N2        -10.3295    9.2107   -1.9918 N.pl3     1 <0>        -0.9319
     24 C17        -2.4975    0.9808    0.0045 C.3       1 <0>        -0.1706
     25 H1          2.8157    0.9067   -1.0485 H         1 <0>         0.0860
     26 H2          3.2582    1.6692    0.4978 H         1 <0>         0.0836
     27 H3          2.3947    0.1127    0.4879 H         1 <0>         0.0838
     28 H4          0.0227    0.0108   -0.0105 H         1 <0>         0.1352
     29 H5          2.0919    3.7404    0.0137 H         1 <0>         0.1348
     30 H6         -0.0778    5.7388   -0.9785 H         1 <0>         0.0769
     31 H7         -0.9569    5.7091    0.5689 H         1 <0>         0.1024
     32 H8          0.8228    5.7370    0.5568 H         1 <0>         0.0846
     33 H9         -2.3121    4.7752   -1.7749 H         1 <0>         0.0880
     34 H10        -3.1756    3.2188   -1.7858 H         1 <0>         0.0911
     35 H11        -4.6775    5.1556   -2.9634 H         1 <0>         0.2344
     36 H12        -7.1274    5.0078   -3.6507 H         1 <0>         0.1366
     37 H13        -9.3392    6.0270   -3.2947 H         1 <0>         0.1546
     38 H14        -7.9295    7.8557    0.2917 H         1 <0>         0.1585
     39 H15        -5.7180    6.8307   -0.0484 H         1 <0>         0.1742
     40 H16        -9.5308    9.5062   -2.4562 H         1 <0>         0.2287
     41 H17       -11.1164    9.7774   -1.9714 H         1 <0>         0.2432
     42 H18        -2.8067    0.7824    1.0307 H         1 <0>         0.0994
     43 H19        -3.2689    1.5611   -0.5017 H         1 <0>         0.0827
     44 H20        -2.3505    0.0365   -0.5197 H         1 <0>         0.0775
@<TRIPOS>BOND
     1    1    2 1
     2    1   25 1
     3    1   26 1
     4    1   27 1
     5    2    7 ar
     6    2    3 ar
     7    3    4 ar
     8    3   28 1
     9    4    5 ar
    10    4   24 1
    11    5    6 ar
    12    5    9 1
    13    6    7 ar
    14    6    8 1
    15    7   29 1
    16    8   30 1
    17    8   31 1
    18    8   32 1
    19    9   10 1
    20   10   11 1
    21   10   33 1
    22   10   34 1
    23   11   12 2
    24   11   13 am
    25   13   14 1
    26   13   35 1
    27   14   19 ar
    28   14   15 ar
    29   15   16 ar
    30   15   36 1
    31   16   17 ar
    32   16   37 1
    33   17   18 ar
    34   17   20 1
    35   18   19 ar
    36   18   38 1
    37   19   39 1
    38   20   21 2
    39   20   22 2
    40   20   23 1
    41   23   40 1
    42   23   41 1
    43   24   42 1
    44   24   43 1
    45   24   44 1
@<TRIPOS>MOLECULE
ZINC00303324
   44    45     0     0     0
SMALL
USER_CHARGES

@<TRIPOS>ATOM
      1 C1          0.4341    4.0862    1.2684 C.3       1 <0>        -0.1981
      2 C2          1.1505    3.5924    0.0099 C.3       1 <0>        -0.0394
      3 C3          2.5859    4.1219   -0.0008 C.3       1 <0>        -0.2048
      4 C4          0.4107    4.0988   -1.2299 C.3       1 <0>        -0.1980
      5 C5          1.1709    2.0855    0.0021 C.ar      1 <0>        -0.0053
      6 C6         -0.0167    1.3781    0.0096 C.ar      1 <0>        -0.1525
      7 C7          0.0021   -0.0041    0.0020 C.ar      1 <0>        -0.0279
      8 C8          1.2084   -0.6789   -0.0132 C.ar      1 <0>        -0.7587
      9 C9          2.3961    0.0285   -0.0212 C.ar      1 <0>        -0.0038
     10 C10         2.3773    1.4107   -0.0145 C.ar      1 <0>        -0.1542
     11 S1          1.2323   -2.4407   -0.0217 S.o2      1 <0>         2.7835
     12 O1          2.4885   -2.8324    0.5148 O.2       1 <0>        -0.9026
     13 O2         -0.0018   -2.8663    0.5395 O.2       1 <0>        -0.9154
     14 N1          1.2232   -2.9228   -1.6059 N.pl3     1 <0>        -0.8110
     15 N2          2.2603   -2.5322   -2.4630 N.2       1 <0>         0.0117
     16 C11         2.2532   -2.9100   -3.7044 C.2       1 <0>        -0.0971
     17 C12         3.3444   -2.4989   -4.6062 C.ar      1 <0>        -0.0875
     18 C13         3.3394   -2.9040   -5.9429 C.ar      1 <0>        -0.0812
     19 C14         4.3616   -2.5176   -6.7829 C.ar      1 <0>        -0.1694
     20 C15         5.3981   -1.7257   -6.3044 C.ar      1 <0>         0.0997
     21 C16         5.4119   -1.3183   -4.9784 C.ar      1 <0>        -0.1906
     22 C17         4.3881   -1.6952   -4.1271 C.ar      1 <0>         0.1241
     23 O3          4.3972   -1.2920   -2.8300 O.3       1 <0>        -0.2775
     24 O4          6.4020   -1.3484   -7.1387 O.3       1 <0>        -0.2906
     25 H1          0.9612    3.7253    2.1517 H         1 <0>         0.0812
     26 H2          0.4194    5.1760    1.2741 H         1 <0>         0.0775
     27 H3         -0.5884    3.7089    1.2761 H         1 <0>         0.0768
     28 H4          3.0962    3.7702   -0.8974 H         1 <0>         0.0799
     29 H5          2.5711    5.2118    0.0048 H         1 <0>         0.0775
     30 H6          3.1129    3.7611    0.8824 H         1 <0>         0.0794
     31 H7         -0.6119    3.7215   -1.2222 H         1 <0>         0.0760
     32 H8          0.3959    5.1887   -1.2242 H         1 <0>         0.0774
     33 H9          0.9211    3.7470   -2.1265 H         1 <0>         0.0807
     34 H10        -0.9592    1.9054    0.0170 H         1 <0>         0.1360
     35 H11        -0.9258   -0.5567    0.0083 H         1 <0>         0.1449
     36 H12         3.3386   -0.4987   -0.0324 H         1 <0>         0.1536
     37 H13         3.3052    1.9634   -0.0205 H         1 <0>         0.1434
     38 H14         0.4998   -3.4757   -1.9405 H         1 <0>         0.2239
     39 H15         1.4478   -3.5256   -4.0769 H         1 <0>         0.1238
     40 H16         2.5354   -3.5199   -6.3179 H         1 <0>         0.1379
     41 H17         4.3566   -2.8311   -7.8164 H         1 <0>         0.1452
     42 H18         6.2197   -0.7025   -4.6114 H         1 <0>         0.1542
     43 H19         4.8553   -1.8990   -2.2326 H         1 <0>         0.2442
     44 H20         6.2387   -0.5134   -7.5982 H         1 <0>         0.2331
@<TRIPOS>BOND
     1    1    2 1
     2    1   25 1
     3    1   26 1
     4    1   27 1
     5    2    3 1
     6    2    4 1
     7    2    5 1
     8    3   28 1
     9    3   29 1
    10    3   30 1
    11    4   31 1
    12    4   32 1
    13    4   33 1
    14    5   10 ar
    15    5    6 ar
    16    6    7 ar
    17    6   34 1
    18    7    8 ar
    19    7   35 1
    20    8    9 ar
    21    8   11 1
    22    9   10 ar
    23    9   36 1
    24   10   37 1
    25   11   12 2
    26   11   13 2
    27   11   14 1
    28   14   15 1
    29   14   38 1
    30   15   16 2
    31   16   17 1
    32   16   39 1
    33   17   22 ar
    34   17   18 ar
    35   18   19 ar
    36   18   40 1
    37   19   20 ar
    38   19   41 1
    39   20   21 ar
    40   20   24 1
    41   21   22 ar
    42   21   42 1
    43   22   23 1
    44   23   43 1
    45   24   44 1
@<TRIPOS>MOLECULE
ZINC00303420
   40    41     0     0     0
SMALL
USER_CHARGES

@<TRIPOS>ATOM
      1 C1          1.3565   -0.9598   -0.7277 C.3       1 <0>        -0.2358
      2 C2          0.0404   -0.2373   -0.5980 C.2       1 <0>         0.3019
      3 O1         -0.9725   -0.7384   -1.0383 O.2       1 <0>        -0.3468
      4 N1         -0.0111    0.9658    0.0074 N.am      1 <0>        -0.3331
      5 C3         -1.2150    1.6778    0.0475 C.ar      1 <0>         0.1151
      6 C4         -1.2063    3.0644   -0.0300 C.ar      1 <0>        -0.1871
      7 C5         -2.3968    3.7638    0.0033 C.ar      1 <0>        -0.0133
      8 C6         -3.5956    3.0857    0.1265 C.ar      1 <0>        -0.7799
      9 C7         -3.6072    1.7055    0.2101 C.ar      1 <0>        -0.0097
     10 C8         -2.4206    0.9998    0.1708 C.ar      1 <0>        -0.1525
     11 S1         -5.1116    3.9822    0.1765 S.o2      1 <0>         2.7633
     12 O2         -4.8697    5.2255   -0.4678 O.2       1 <0>        -0.9155
     13 O3         -6.1275    3.0865   -0.2533 O.2       1 <0>        -0.9149
     14 N2         -5.4250    4.3259    1.7658 N.pl3     1 <0>        -0.8860
     15 C9         -4.5315    5.2143    2.5132 C.3       1 <0>        -0.0017
     16 C10        -5.2208    5.6636    3.8030 C.3       1 <0>        -0.1281
     17 C11        -4.3016    6.5774    4.5718 C.ar      1 <0>        -0.0978
     18 C12        -3.4253    6.0517    5.5028 C.ar      1 <0>        -0.0988
     19 C13        -2.5785    6.8883    6.2050 C.ar      1 <0>        -0.1659
     20 C14        -2.6154    8.2545    5.9832 C.ar      1 <0>         0.0990
     21 C15        -3.4972    8.7804    5.0543 C.ar      1 <0>        -0.1637
     22 C16        -4.3394    7.9414    4.3496 C.ar      1 <0>        -0.0950
     23 F1         -1.7914    9.0737    6.6724 F         1 <0>        -0.1052
     24 H1          2.1467   -0.3592   -0.2771 H         1 <0>         0.0790
     25 H2          1.2951   -1.9211   -0.2176 H         1 <0>         0.1155
     26 H3          1.5798   -1.1217   -1.7822 H         1 <0>         0.1187
     27 H4          0.7855    1.3363    0.4186 H         1 <0>         0.2355
     28 H5         -0.2700    3.5948   -0.1211 H         1 <0>         0.1357
     29 H6         -2.3911    4.8418   -0.0625 H         1 <0>         0.1504
     30 H7         -4.5452    1.1787    0.3059 H         1 <0>         0.1542
     31 H8         -2.4304   -0.0783    0.2354 H         1 <0>         0.1715
     32 H9         -6.2003    3.9390    2.2019 H         1 <0>         0.2442
     33 H10        -3.6123    4.6823    2.7587 H         1 <0>         0.0774
     34 H11        -4.2946    6.0871    1.9047 H         1 <0>         0.1041
     35 H12        -6.1400    6.1956    3.5575 H         1 <0>         0.1008
     36 H13        -5.4577    4.7908    4.4115 H         1 <0>         0.0933
     37 H14        -3.3996    4.9864    5.6786 H         1 <0>         0.1367
     38 H15        -1.8911    6.4769    6.9293 H         1 <0>         0.1456
     39 H16        -3.5266    9.8459    4.8803 H         1 <0>         0.1475
     40 H17        -5.0270    8.3513    3.6247 H         1 <0>         0.1414
@<TRIPOS>BOND
     1    1    2 1
     2    1   24 1
     3    1   25 1
     4    1   26 1
     5    2    3 2
     6    2    4 am
     7    4    5 1
     8    4   27 1
     9    5   10 ar
    10    5    6 ar
    11    6    7 ar
    12    6   28 1
    13    7    8 ar
    14    7   29 1
    15    8    9 ar
    16    8   11 1
    17    9   10 ar
    18    9   30 1
    19   10   31 1
    20   11   12 2
    21   11   13 2
    22   11   14 1
    23   14   15 1
    24   14   32 1
    25   15   16 1
    26   15   33 1
    27   15   34 1
    28   16   17 1
    29   16   35 1
    30   16   36 1
    31   17   22 ar
    32   17   18 ar
    33   18   19 ar
    34   18   37 1
    35   19   20 ar
    36   19   38 1
    37   20   21 ar
    38   20   23 1
    39   21   22 ar
    40   21   39 1
    41   22   40 1
@<TRIPOS>MOLECULE
ZINC00304032
   41    42     0     0     0
SMALL
USER_CHARGES

@<TRIPOS>ATOM
      1 C1          2.4661   -1.3763   -1.2574 C.3       1 <0>        -0.1958
      2 C2          2.6254    0.1139   -0.9491 C.3       1 <0>        -0.1891
      3 C3          1.2701    0.7220   -0.6954 C.2       1 <0>         0.3010
      4 O1          0.2747    0.0314   -0.7552 O.2       1 <0>        -0.3565
      5 N1          1.1640    2.0331   -0.4019 N.am      1 <0>        -0.3293
      6 C4         -0.1000    2.6139   -0.2370 C.ar      1 <0>         0.0500
      7 C5         -0.3247    3.9186   -0.6563 C.ar      1 <0>        -0.1439
      8 C6         -1.5716    4.4893   -0.4981 C.ar      1 <0>        -0.1065
      9 C7         -2.5987    3.7622    0.0895 C.ar      1 <0>         0.0408
     10 C8         -2.3724    2.4591    0.5137 C.ar      1 <0>        -0.1404
     11 C9         -1.1268    1.8869    0.3511 C.ar      1 <0>        -0.1089
     12 N2         -3.8620    4.3424    0.2540 N.am      1 <0>        -0.3211
     13 C10        -3.9679    5.6491    0.5667 C.2       1 <0>         0.3505
     14 O2         -2.9686    6.3017    0.7979 O.2       1 <0>        -0.3466
     15 C11        -5.2990    6.2888    0.6286 C.ar      1 <0>        -0.1461
     16 C12        -6.4361    5.5808    0.2349 C.ar      1 <0>        -0.0594
     17 C13        -7.6752    6.1836    0.2951 C.ar      1 <0>        -0.1541
     18 C14        -7.7929    7.4872    0.7444 C.ar      1 <0>        -0.0408
     19 C15        -6.6703    8.1942    1.1365 C.ar      1 <0>        -0.1292
     20 C16        -5.4254    7.6012    1.0863 C.ar      1 <0>         0.0567
     21 C17        -4.2043    8.3708    1.5197 C.3       1 <0>        -0.2209
     22 N3         -6.8055    9.5881    1.6158 N.pl3     1 <0>         0.5514
     23 O3         -7.9114   10.0750    1.7684 O.2       1 <0>        -0.3560
     24 O4         -5.8108   10.2481    1.8576 O.3       1 <0>        -0.3487
     25 H1          1.9973   -1.8747   -0.4089 H         1 <0>         0.0901
     26 H2          1.8412   -1.4996   -2.1419 H         1 <0>         0.0916
     27 H3          3.4464   -1.8161   -1.4409 H         1 <0>         0.0736
     28 H4          3.0942    0.6123   -1.7975 H         1 <0>         0.1011
     29 H5          3.2503    0.2372   -0.0646 H         1 <0>         0.0997
     30 H6          1.9630    2.5737   -0.3011 H         1 <0>         0.2328
     31 H7          0.4751    4.4855   -1.1095 H         1 <0>         0.1349
     32 H8         -1.7474    5.5026   -0.8279 H         1 <0>         0.1573
     33 H9         -3.1711    1.8934    0.9703 H         1 <0>         0.1338
     34 H10        -0.9508    0.8736    0.6808 H         1 <0>         0.1672
     35 H11        -4.6612    3.8040    0.1429 H         1 <0>         0.2319
     36 H12        -6.3456    4.5635   -0.1163 H         1 <0>         0.1371
     37 H13        -8.5556    5.6372   -0.0095 H         1 <0>         0.1505
     38 H14        -8.7655    7.9545    0.7896 H         1 <0>         0.1674
     39 H15        -3.7641    8.8699    0.6564 H         1 <0>         0.1156
     40 H16        -4.4889    9.1149    2.2635 H         1 <0>         0.1272
     41 H17        -3.4768    7.6841    1.9525 H         1 <0>         0.1312
@<TRIPOS>BOND
     1    1    2 1
     2    1   25 1
     3    1   26 1
     4    1   27 1
     5    2    3 1
     6    2   28 1
     7    2   29 1
     8    3    4 2
     9    3    5 am
    10    5    6 1
    11    5   30 1
    12    6   11 ar
    13    6    7 ar
    14    7    8 ar
    15    7   31 1
    16    8    9 ar
    17    8   32 1
    18    9   10 ar
    19    9   12 1
    20   10   11 ar
    21   10   33 1
    22   11   34 1
    23   12   13 am
    24   12   35 1
    25   13   14 2
    26   13   15 1
    27   15   20 ar
    28   15   16 ar
    29   16   17 ar
    30   16   36 1
    31   17   18 ar
    32   17   37 1
    33   18   19 ar
    34   18   38 1
    35   19   20 ar
    36   19   22 1
    37   20   21 1
    38   21   39 1
    39   21   40 1
    40   21   41 1
    41   22   23 2
    42   22   24 1
@<TRIPOS>MOLECULE
ZINC00305680
   45    47     0     0     0
SMALL
USER_CHARGES

@<TRIPOS>ATOM
      1 C1         -2.2269   -5.8314   -0.0047 C.3       1 <0>        -0.2200
      2 C2         -0.7232   -5.7322   -0.0193 C.2       1 <0>        -0.1125
      3 N1         -0.1575   -4.5838   -0.0193 N.2       1 <0>         0.0215
      4 N2         -0.9363   -3.4193   -0.0058 N.pl3     1 <0>        -0.2879
      5 C3         -0.3278   -2.1842   -0.0059 C.2       1 <0>         0.2188
      6 N3          0.9734   -1.9761   -0.0174 N.2       1 <0>        -0.2122
      7 C4          1.2251   -0.6665   -0.0132 C.2       1 <0>         0.1228
      8 C5          0.0021   -0.0041    0.0020 C.2       1 <0>        -0.2755
      9 N4         -0.9759   -0.9887    0.0065 N.pl3     1 <0>        -0.1364
     10 C6         -2.4259   -0.7804    0.0216 C.3       1 <0>        -0.0116
     11 C7         -2.9447   -0.7006   -1.4155 C.3       1 <0>        -0.1416
     12 C8         -4.4364   -0.4864   -1.4000 C.ar      1 <0>        -0.0857
     13 C9         -5.2907   -1.5731   -1.4029 C.ar      1 <0>        -0.1291
     14 C10        -6.6589   -1.3767   -1.3833 C.ar      1 <0>        -0.1270
     15 C11        -7.1728   -0.0935   -1.3718 C.ar      1 <0>        -0.1249
     16 C12        -6.3185    0.9933   -1.3746 C.ar      1 <0>        -0.1236
     17 C13        -4.9503    0.7968   -1.3885 C.ar      1 <0>        -0.1130
     18 C14        -0.0170    1.4022    0.0098 C.2       1 <0>         0.3905
     19 O1         -1.0769    2.0036    0.0180 O.2       1 <0>        -0.3789
     20 N5          1.1504    2.0783    0.0022 N.am      1 <0>        -0.3361
     21 H1          1.1403    3.0782    0.0082 H         1 <0>         0.2816
     22 C15         2.3268    1.4284   -0.0133 C.2       1 <0>         0.4092
     23 O2          3.3593    2.0709   -0.0204 O.2       1 <0>        -0.3826
     24 N6          2.3904    0.0835   -0.0207 N.am      1 <0>        -0.2367
     25 C16         3.6925   -0.5876   -0.0363 C.3       1 <0>        -0.0522
     26 C17         0.1145   -6.9849   -0.0338 C.3       1 <0>        -0.1512
     27 H2         -2.5997   -5.8503   -1.0288 H         1 <0>         0.0977
     28 H3         -2.5257   -6.7459    0.5077 H         1 <0>         0.0996
     29 H4         -2.6428   -4.9698    0.5176 H         1 <0>         0.0766
     30 H5         -1.9041   -3.4832    0.0036 H         1 <0>         0.2305
     31 H6         -2.9071   -1.6123    0.5359 H         1 <0>         0.0896
     32 H7         -2.6540    0.1495    0.5424 H         1 <0>         0.1410
     33 H8         -2.4636    0.1313   -1.9298 H         1 <0>         0.1176
     34 H9         -2.7166   -1.6306   -1.9363 H         1 <0>         0.0889
     35 H10        -4.8893   -2.5757   -1.4164 H         1 <0>         0.1210
     36 H11        -7.3264   -2.2257   -1.3807 H         1 <0>         0.1293
     37 H12        -8.2418    0.0600   -1.3602 H         1 <0>         0.1308
     38 H13        -6.7200    1.9958   -1.3656 H         1 <0>         0.1338
     39 H14        -4.2828    1.6458   -1.3907 H         1 <0>         0.1446
     40 H15         4.0057   -0.7491   -1.0678 H         1 <0>         0.0856
     41 H16         4.4281    0.0347    0.4735 H         1 <0>         0.1093
     42 H17         3.6127   -1.5475    0.4738 H         1 <0>         0.1070
     43 H18         0.3267   -7.2919    0.9903 H         1 <0>         0.0975
     44 H19        -0.4285   -7.7791   -0.5461 H         1 <0>         0.0882
     45 H20         1.0510   -6.7896   -0.5561 H         1 <0>         0.1055
@<TRIPOS>BOND
     1    1    2 1
     2    1   27 1
     3    1   28 1
     4    1   29 1
     5    2    3 2
     6    2   26 1
     7    3    4 1
     8    4    5 1
     9    4   30 1
    10    5    9 1
    11    5    6 2
    12    6    7 1
    13    7   24 1
    14    7    8 2
    15    8    9 1
    16    8   18 1
    17    9   10 1
    18   10   11 1
    19   10   31 1
    20   10   32 1
    21   11   12 1
    22   11   33 1
    23   11   34 1
    24   12   17 ar
    25   12   13 ar
    26   13   14 ar
    27   13   35 1
    28   14   15 ar
    29   14   36 1
    30   15   16 ar
    31   15   37 1
    32   16   17 ar
    33   16   38 1
    34   17   39 1
    35   18   19 2
    36   18   20 am
    37   20   21 1
    38   20   22 am
    39   22   23 2
    40   22   24 am
    41   24   25 1
    42   25   40 1
    43   25   41 1
    44   25   42 1
    45   26   43 1
    46   26   44 1
    47   26   45 1
@<TRIPOS>MOLECULE
ZINC00306331
   39    41     0     0     0
SMALL
USER_CHARGES

@<TRIPOS>ATOM
      1 C1         -5.8787   -2.1846    1.3198 C.3       1 <0>        -0.0643
      2 O1         -5.2822   -1.9532    0.0420 O.3       1 <0>        -0.2089
      3 C2         -4.0071   -1.4832    0.0324 C.ar      1 <0>         0.1091
      4 C3         -3.3667   -1.2363   -1.1733 C.ar      1 <0>        -0.1600
      5 C4         -2.0706   -0.7581   -1.1804 C.ar      1 <0>        -0.0730
      6 C5         -1.4117   -0.5257    0.0127 C.ar      1 <0>        -0.1290
      7 C6         -2.0458   -0.7764    1.2156 C.ar      1 <0>        -0.0672
      8 C7         -3.3438   -1.2492    1.2281 C.ar      1 <0>        -0.2223
      9 C8          0.0021   -0.0041    0.0020 C.3       1 <0>        -0.2152
     10 S1         -0.0225    1.8057    0.0120 S.3       1 <0>         0.2560
     11 C9          1.7084    2.1353   -0.0028 C.2       1 <0>        -0.1641
     12 N1          2.6755    1.2433   -0.0173 N.2       1 <0>        -0.1638
     13 N2          3.8218    1.8215   -0.0249 N.2       1 <0>         0.0041
     14 N3          3.6824    3.1027   -0.0162 N.2       1 <0>        -0.0347
     15 N4          2.3007    3.3630   -0.0073 N.pl3     1 <0>        -0.1181
     16 C10         1.6704    4.6115   -0.0021 C.ar      1 <0>         0.0756
     17 C11         0.4739    4.7873   -0.6884 C.ar      1 <0>        -0.1434
     18 C12        -0.1520    6.0141   -0.6814 C.ar      1 <0>        -0.0898
     19 C13         0.4222    7.0854    0.0073 C.ar      1 <0>        -0.1243
     20 C14         1.6271    6.9065    0.6914 C.ar      1 <0>        -0.0549
     21 C15         2.2446    5.6754    0.6848 C.ar      1 <0>        -0.1197
     22 C16        -0.2426    8.4040    0.0116 C.2       1 <0>         0.3482
     23 O2          0.2586    9.3354    0.6110 O.2       1 <0>        -0.3610
     24 N5         -1.4049    8.5748   -0.6489 N.am      1 <0>        -0.4261
     25 H1         -5.2908   -2.9215    1.8671 H         1 <0>         0.0704
     26 H2         -5.9062   -1.2514    1.8823 H         1 <0>         0.0695
     27 H3         -6.8939   -2.5575    1.1847 H         1 <0>         0.1114
     28 H4         -3.8808   -1.4180   -2.1055 H         1 <0>         0.1483
     29 H5         -1.5718   -0.5654   -2.1187 H         1 <0>         0.1399
     30 H6         -1.5273   -0.5985    2.1461 H         1 <0>         0.1377
     31 H7         -3.8402   -1.4406    2.1680 H         1 <0>         0.1399
     32 H8          0.5123   -0.3556   -0.8948 H         1 <0>         0.1275
     33 H9          0.5293   -0.3651    0.8851 H         1 <0>         0.1280
     34 H10         0.0329    3.9598   -1.2243 H         1 <0>         0.1562
     35 H11        -1.0834    6.1488   -1.2113 H         1 <0>         0.1355
     36 H12         2.0740    7.7326    1.2245 H         1 <0>         0.1693
     37 H13         3.1760    5.5364    1.2134 H         1 <0>         0.1621
     38 H14        -1.8047    7.8317   -1.1271 H         1 <0>         0.2159
     39 H15        -1.8416    9.4410   -0.6460 H         1 <0>         0.2351
@<TRIPOS>BOND
     1    1    2 1
     2    1   25 1
     3    1   26 1
     4    1   27 1
     5    2    3 1
     6    3    8 ar
     7    3    4 ar
     8    4    5 ar
     9    4   28 1
    10    5    6 ar
    11    5   29 1
    12    6    7 ar
    13    6    9 1
    14    7    8 ar
    15    7   30 1
    16    8   31 1
    17    9   10 1
    18    9   32 1
    19    9   33 1
    20   10   11 1
    21   11   15 1
    22   11   12 2
    23   12   13 1
    24   13   14 2
    25   14   15 1
    26   15   16 1
    27   16   21 ar
    28   16   17 ar
    29   17   18 ar
    30   17   34 1
    31   18   19 ar
    32   18   35 1
    33   19   20 ar
    34   19   22 1
    35   20   21 ar
    36   20   36 1
    37   21   37 1
    38   22   23 2
    39   22   24 am
    40   24   38 1
    41   24   39 1
@<TRIPOS>MOLECULE
ZINC00307448
   39    41     0     0     0
SMALL
USER_CHARGES

@<TRIPOS>ATOM
      1 C1         -7.6178    2.0359    6.7318 C.ar      1 <0>        -0.1622
      2 C2         -6.9979    2.5442    7.8584 C.ar      1 <0>        -0.0956
      3 C3         -5.6286    2.7256    7.8722 C.ar      1 <0>        -0.1532
      4 C4         -4.8752    2.3976    6.7541 C.ar      1 <0>         0.0892
      5 C5         -5.5005    1.8930    5.6228 C.ar      1 <0>        -0.2090
      6 C6         -6.8694    1.7082    5.6163 C.ar      1 <0>        -0.0919
      7 O1         -3.5281    2.5755    6.7650 O.3       1 <0>        -0.1587
      8 C7         -2.8192    2.1484    5.6864 C.ar      1 <0>         0.0464
      9 C8         -2.0703    0.9831    5.7659 C.ar      1 <0>        -0.1141
     10 C9         -1.3501    0.5489    4.6708 C.ar      1 <0>        -0.1151
     11 C10        -1.3754    1.2787    3.4898 C.ar      1 <0>         0.0513
     12 C11        -2.1205    2.4479    3.4126 C.ar      1 <0>        -0.1480
     13 C12        -2.8452    2.8779    4.5064 C.ar      1 <0>        -0.1316
     14 N1         -0.6449    0.8386    2.3783 N.am      1 <0>        -0.3175
     15 C13        -0.5170   -0.4809    2.1354 C.2       1 <0>         0.3163
     16 O2         -0.9663   -1.2885    2.9210 O.2       1 <0>        -0.3268
     17 C14         0.1842   -0.9529    0.8878 C.3       1 <0>        -0.2356
     18 H1          0.9406   -0.2209    0.6047 H         1 <0>         0.1290
     19 C15         0.8611   -2.2848    1.1716 C.3       1 <0>        -0.2326
     20 C16         1.4779   -2.8518   -0.0726 C.2       1 <0>         0.2992
     21 O3          2.5680   -3.3838    0.0064 O.2       1 <0>        -0.2874
     22 N2          0.8861   -2.7960   -1.2448 N.2       1 <0>        -0.3715
     23 C17        -0.2236   -2.1626   -1.5113 C.2       1 <0>         0.0857
     24 S1         -1.0201   -1.1043   -0.4457 S.3       1 <0>         0.1857
     25 N3         -0.7869   -2.3654   -2.7368 N.pl3     1 <0>        -0.3483
     26 H2         -8.6885    1.8942    6.7233 H         1 <0>         0.1305
     27 H3         -7.5848    2.7994    8.7284 H         1 <0>         0.1341
     28 H4         -5.1448    3.1220    8.7527 H         1 <0>         0.1430
     29 H5         -4.9169    1.6408    4.7498 H         1 <0>         0.1444
     30 H6         -7.3561    1.3116    4.7375 H         1 <0>         0.1310
     31 H7         -2.0505    0.4157    6.6847 H         1 <0>         0.1522
     32 H8         -0.7675   -0.3584    4.7327 H         1 <0>         0.1701
     33 H9         -2.1367    3.0185    2.4958 H         1 <0>         0.1352
     34 H10        -3.4283    3.7849    4.4451 H         1 <0>         0.1489
     35 H11        -0.2312    1.4836    1.7835 H         1 <0>         0.2374
     36 H12         1.6384   -2.1385    1.9216 H         1 <0>         0.1378
     37 H13         0.1216   -2.9871    1.5563 H         1 <0>         0.1442
     38 H14        -1.6119   -1.9129   -2.9723 H         1 <0>         0.2359
     39 H15        -0.3624   -2.9622   -3.3729 H         1 <0>         0.2516
@<TRIPOS>BOND
     1    1    6 ar
     2    1    2 ar
     3    1   26 1
     4    2    3 ar
     5    2   27 1
     6    3    4 ar
     7    3   28 1
     8    4    5 ar
     9    4    7 1
    10    5    6 ar
    11    5   29 1
    12    6   30 1
    13    7    8 1
    14    8   13 ar
    15    8    9 ar
    16    9   10 ar
    17    9   31 1
    18   10   11 ar
    19   10   32 1
    20   11   12 ar
    21   11   14 1
    22   12   13 ar
    23   12   33 1
    24   13   34 1
    25   14   15 am
    26   14   35 1
    27   15   16 2
    28   15   17 1
    29   17   18 1
    30   17   24 1
    31   17   19 1
    32   19   20 1
    33   19   36 1
    34   19   37 1
    35   20   21 2
    36   20   22 1
    37   22   23 2
    38   23   24 1
    39   23   25 1
    40   25   38 1
    41   25   39 1
@<TRIPOS>MOLECULE
ZINC00311448
   40    41     0     0     0
SMALL
USER_CHARGES

@<TRIPOS>ATOM
      1 C1         -1.4781    4.0296   -2.6343 C.3       1 <0>        -0.2398
      2 C2         -0.7922    3.4233   -1.4373 C.2       1 <0>         0.3236
      3 O1         -0.2789    4.1404   -0.6047 O.2       1 <0>        -0.3249
      4 N1         -0.7491    2.0841   -1.2919 N.am      1 <0>        -0.8306
      5 S1          0.0047    1.4178    0.0235 S.o2      1 <0>         2.7501
      6 O2         -0.1414    0.0093   -0.0950 O.2       1 <0>        -0.9171
      7 O3          1.2751    2.0461    0.1250 O.2       1 <0>        -0.8840
      8 C3         -0.9114    1.9009    1.4490 C.ar      1 <0>        -0.7836
      9 C4         -0.5849    3.0672    2.1163 C.ar      1 <0>         0.0122
     10 C5         -1.3045    3.4516    3.2306 C.ar      1 <0>        -0.1569
     11 C6         -2.3502    2.6597    3.6872 C.ar      1 <0>         0.1278
     12 C7         -2.6720    1.4860    3.0180 C.ar      1 <0>        -0.1958
     13 C8         -1.9517    1.1100    1.9013 C.ar      1 <0>        -0.0129
     14 N2         -3.0779    3.0436    4.8182 N.am      1 <0>        -0.3334
     15 C9         -3.2820    4.3506    5.0765 C.2       1 <0>         0.3507
     16 O4         -2.9177    5.1923    4.2781 O.2       1 <0>        -0.3232
     17 C10        -3.9473    4.7599    6.3278 C.ar      1 <0>        -0.1694
     18 C11        -4.3728    3.7958    7.2453 C.ar      1 <0>        -0.0671
     19 C12        -4.9897    4.1850    8.4142 C.ar      1 <0>        -0.1777
     20 C13        -5.1997    5.5284    8.6801 C.ar      1 <0>        -0.0595
     21 C14        -4.7887    6.4912    7.7800 C.ar      1 <0>        -0.2333
     22 C15        -4.1616    6.1178    6.6005 C.ar      1 <0>         0.1584
     23 O5         -3.7580    7.0626    5.7147 O.3       1 <0>        -0.1667
     24 C16        -4.0102    8.4260    6.0606 C.3       1 <0>        -0.0699
     25 H1         -2.5286    4.2039   -2.4015 H         1 <0>         0.1108
     26 H2         -0.9999    4.9761   -2.8863 H         1 <0>         0.1213
     27 H3         -1.4020    3.3473   -3.4809 H         1 <0>         0.0883
     28 H4         -1.1596    1.5105   -1.9578 H         1 <0>         0.2516
     29 H5          0.2312    3.6802    1.7633 H         1 <0>         0.1729
     30 H6         -1.0519    4.3649    3.7488 H         1 <0>         0.1703
     31 H7         -3.4848    0.8682    3.3703 H         1 <0>         0.1335
     32 H8         -2.2014    0.1974    1.3804 H         1 <0>         0.1458
     33 H9         -3.4358    2.3693    5.4166 H         1 <0>         0.2342
     34 H10        -4.2149    2.7473    7.0402 H         1 <0>         0.1281
     35 H11        -5.3152    3.4392    9.1243 H         1 <0>         0.1357
     36 H12        -5.6881    5.8242    9.5968 H         1 <0>         0.1346
     37 H13        -4.9559    7.5364    7.9944 H         1 <0>         0.1430
     38 H14        -3.6387    9.0764    5.2687 H         1 <0>         0.1181
     39 H15        -5.0827    8.5777    6.1822 H         1 <0>         0.0672
     40 H16        -3.5014    8.6640    6.9948 H         1 <0>         0.0677
@<TRIPOS>BOND
     1    1    2 1
     2    1   25 1
     3    1   26 1
     4    1   27 1
     5    2    3 2
     6    2    4 am
     7    4    5 1
     8    4   28 1
     9    5    6 2
    10    5    7 2
    11    5    8 1
    12    8   13 ar
    13    8    9 ar
    14    9   10 ar
    15    9   29 1
    16   10   11 ar
    17   10   30 1
    18   11   12 ar
    19   11   14 1
    20   12   13 ar
    21   12   31 1
    22   13   32 1
    23   14   15 am
    24   14   33 1
    25   15   16 2
    26   15   17 1
    27   17   22 ar
    28   17   18 ar
    29   18   19 ar
    30   18   34 1
    31   19   20 ar
    32   19   35 1
    33   20   21 ar
    34   20   36 1
    35   21   22 ar
    36   21   37 1
    37   22   23 1
    38   23   24 1
    39   24   38 1
    40   24   39 1
    41   24   40 1
@<TRIPOS>MOLECULE
ZINC00311458
   44    46     0     0     0
SMALL
USER_CHARGES

@<TRIPOS>ATOM
      1 C1         -0.6101   -9.1180   -0.6761 C.3       1 <0>        -0.1980
      2 C2          0.1676   -8.5117    0.4937 C.3       1 <0>        -0.0360
      3 C3          1.6162   -9.0022    0.4519 C.3       1 <0>        -0.2045
      4 C4         -0.4783   -8.9409    1.8126 C.3       1 <0>        -0.1980
      5 C5          0.1429   -7.0086    0.3880 C.ar      1 <0>        -0.0338
      6 C6         -1.0666   -6.3368    0.4042 C.ar      1 <0>        -0.1401
      7 C7         -1.0963   -4.9610    0.3078 C.ar      1 <0>        -0.0621
      8 C8          0.0976   -4.2465    0.1942 C.ar      1 <0>        -0.1390
      9 C9          1.3141   -4.9308    0.1736 C.ar      1 <0>        -0.0934
     10 C10         1.3299   -6.3065    0.2756 C.ar      1 <0>        -0.1412
     11 C11         0.0733   -2.7723    0.0900 C.2       1 <0>         0.3543
     12 O1         -0.9877   -2.1795    0.1032 O.2       1 <0>        -0.3662
     13 N1          1.2277   -2.0854   -0.0195 N.am      1 <0>        -0.3139
     14 C12         1.2120   -0.6938   -0.0205 C.ar      1 <0>         0.1272
     15 C13         0.1591   -0.0033   -0.6174 C.ar      1 <0>        -0.1198
     16 C14         0.1397    1.3765   -0.6195 C.ar      1 <0>        -0.0982
     17 C15         1.1652    2.0992   -0.0296 C.ar      1 <0>        -0.0943
     18 C16         2.2224    1.4321    0.5692 C.ar      1 <0>        -0.0840
     19 C17         2.2498    0.0219    0.5763 C.ar      1 <0>        -0.1505
     20 C18         3.3878   -0.6590    1.2223 C.2       1 <0>         0.3660
     21 O2          3.4418   -1.8734    1.2453 O.2       1 <0>        -0.3824
     22 N2          4.3669    0.0746    1.7863 N.am      1 <0>        -0.2713
     23 H1          5.1347   -0.3949    2.2222 H         1 <0>         0.2670
     24 N3          4.3420    1.4700    1.7806 N.am      1 <0>        -0.2778
     25 H2          5.0924    1.9704    2.2125 H         1 <0>         0.2676
     26 C19         3.3369    2.1630    1.2105 C.2       1 <0>         0.3544
     27 O3          3.3458    3.3783    1.2236 O.2       1 <0>        -0.3482
     28 H3         -0.1499   -8.8123   -1.6157 H         1 <0>         0.0795
     29 H4         -0.5922  -10.2052   -0.5997 H         1 <0>         0.0773
     30 H5         -1.6421   -8.7686   -0.6464 H         1 <0>         0.0766
     31 H6          2.1703   -8.5702    1.2853 H         1 <0>         0.0788
     32 H7          1.6341  -10.0893    0.5284 H         1 <0>         0.0778
     33 H8          2.0764   -8.6964   -0.4877 H         1 <0>         0.0776
     34 H9         -1.5104   -8.5914    1.8423 H         1 <0>         0.0767
     35 H10        -0.4605  -10.0280    1.8890 H         1 <0>         0.0770
     36 H11         0.0757   -8.5089    2.6460 H         1 <0>         0.0807
     37 H12        -1.9895   -6.8908    0.4921 H         1 <0>         0.1378
     38 H13        -2.0410   -4.4378    0.3206 H         1 <0>         0.1546
     39 H14         2.2410   -4.3843    0.0815 H         1 <0>         0.1371
     40 H15         2.2705   -6.8369    0.2636 H         1 <0>         0.1419
     41 H16         2.0695   -2.5610   -0.0977 H         1 <0>         0.2633
     42 H17        -0.6475   -0.5517   -1.0812 H         1 <0>         0.1765
     43 H18        -0.6806    1.8988   -1.0894 H         1 <0>         0.1439
     44 H19         1.1406    3.1789   -0.0370 H         1 <0>         0.1591
@<TRIPOS>BOND
     1    1    2 1
     2    1   28 1
     3    1   29 1
     4    1   30 1
     5    2    3 1
     6    2    4 1
     7    2    5 1
     8    3   31 1
     9    3   32 1
    10    3   33 1
    11    4   34 1
    12    4   35 1
    13    4   36 1
    14    5   10 ar
    15    5    6 ar
    16    6    7 ar
    17    6   37 1
    18    7    8 ar
    19    7   38 1
    20    8    9 ar
    21    8   11 1
    22    9   10 ar
    23    9   39 1
    24   10   40 1
    25   11   12 2
    26   11   13 am
    27   13   14 1
    28   13   41 1
    29   14   19 ar
    30   14   15 ar
    31   15   16 ar
    32   15   42 1
    33   16   17 ar
    34   16   43 1
    35   17   18 ar
    36   17   44 1
    37   18   26 1
    38   18   19 ar
    39   19   20 1
    40   20   21 2
    41   20   22 am
    42   22   23 1
    43   22   24 1
    44   24   25 1
    45   24   26 am
    46   26   27 2
@<TRIPOS>MOLECULE
ZINC00312149
   37    39     0     0     0
SMALL
USER_CHARGES

@<TRIPOS>ATOM
      1 C1         -7.1709    2.3560    0.2482 C.3       1 <0>        -0.0683
      2 N1         -6.5447    1.0329    0.3075 N.pl3     1 <0>        -0.1467
      3 C2         -7.1796   -0.1846    0.4187 C.2       1 <0>        -0.0004
      4 N2         -6.2420   -1.1065    0.4419 N.2       1 <0>        -0.0636
      5 N3         -5.0842   -0.5567    0.3492 N.2       1 <0>        -0.1116
      6 C3         -5.2086    0.7484    0.2611 C.2       1 <0>        -0.2261
      7 S1         -3.8964    1.9155    0.1175 S.3       1 <0>         0.3223
      8 C4         -2.4755    0.7944    0.1326 C.3       1 <0>        -0.3095
      9 C5         -1.2034    1.5941    0.0170 C.2       1 <0>         0.3184
     10 O1         -1.2526    2.8030   -0.0672 O.2       1 <0>        -0.3428
     11 N4         -0.0111    0.9658    0.0074 N.am      1 <0>        -0.3199
     12 C6          1.1726    1.7118   -0.0078 C.ar      1 <0>         0.0699
     13 C7          1.2308    2.9098   -0.7088 C.ar      1 <0>        -0.1342
     14 C8          2.3975    3.6490   -0.7189 C.ar      1 <0>        -0.1002
     15 C9          3.5131    3.1937   -0.0418 C.ar      1 <0>        -0.1653
     16 C10         3.4625    1.9949    0.6553 C.ar      1 <0>         0.0858
     17 C11         2.2915    1.2530    0.6726 C.ar      1 <0>        -0.1857
     18 O2          4.5602    1.5482    1.3203 O.3       1 <0>        -0.2894
     19 C12        -8.6310   -0.4103    0.5016 C.2       1 <0>         0.0012
     20 C13        -9.2402   -1.5646    0.8933 C.2       1 <0>        -0.1496
     21 C14       -10.6278   -1.3338    0.8249 C.2       1 <0>        -0.2197
     22 C15       -10.7977   -0.0687    0.3922 C.2       1 <0>        -0.0869
     23 O3         -9.5900    0.4865    0.1978 O.3       1 <0>        -0.0648
     24 H1         -7.3771    2.6142   -0.7905 H         1 <0>         0.1001
     25 H2         -8.1042    2.3418    0.8111 H         1 <0>         0.1119
     26 H3         -6.4975    3.0964    0.6798 H         1 <0>         0.1059
     27 H4         -2.5484    0.1042   -0.7079 H         1 <0>         0.1391
     28 H5         -2.4671    0.2311    1.0657 H         1 <0>         0.1416
     29 H6          0.0264   -0.0034    0.0068 H         1 <0>         0.2369
     30 H7          0.3619    3.2655   -1.2427 H         1 <0>         0.1655
     31 H8          2.4397    4.5822   -1.2610 H         1 <0>         0.1383
     32 H9          4.4254    3.7714   -0.0555 H         1 <0>         0.1406
     33 H10         2.2502    0.3200    1.2149 H         1 <0>         0.1403
     34 H11         5.1409    0.9869    0.7884 H         1 <0>         0.2268
     35 H12        -8.7532   -2.4787    1.1993 H         1 <0>         0.1763
     36 H13       -11.4085   -2.0388    1.0697 H         1 <0>         0.1620
     37 H14       -11.7478    0.4183    0.2291 H         1 <0>         0.2018
@<TRIPOS>BOND
     1    1    2 1
     2    1   24 1
     3    1   25 1
     4    1   26 1
     5    2    6 1
     6    2    3 1
     7    3    4 2
     8    3   19 1
     9    4    5 1
    10    5    6 2
    11    6    7 1
    12    7    8 1
    13    8    9 1
    14    8   27 1
    15    8   28 1
    16    9   10 2
    17    9   11 am
    18   11   12 1
    19   11   29 1
    20   12   17 ar
    21   12   13 ar
    22   13   14 ar
    23   13   30 1
    24   14   15 ar
    25   14   31 1
    26   15   16 ar
    27   15   32 1
    28   16   17 ar
    29   16   18 1
    30   17   33 1
    31   18   34 1
    32   19   23 1
    33   19   20 2
    34   20   21 1
    35   20   35 1
    36   21   22 2
    37   21   36 1
    38   22   23 1
    39   22   37 1
@<TRIPOS>MOLECULE
ZINC00312488
   41    44     0     0     0
SMALL
USER_CHARGES

@<TRIPOS>ATOM
      1 C1          2.2951   -6.5312   -0.6247 C.3       1 <0>        -0.1738
      2 C2          2.5278   -5.0431   -0.5766 C.ar      1 <0>        -0.0840
      3 C3          1.4617   -4.1733   -0.7163 C.ar      1 <0>        -0.1086
      4 C4          1.6713   -2.8090   -0.6723 C.ar      1 <0>        -0.1110
      5 C5          2.9549   -2.3106   -0.4875 C.ar      1 <0>         0.0497
      6 C6          4.0242   -3.1872   -0.3528 C.ar      1 <0>        -0.1545
      7 C7          3.8068   -4.5504   -0.3925 C.ar      1 <0>        -0.1108
      8 N1          3.1706   -0.9309   -0.4429 N.pl3     1 <0>        -0.2724
      9 C8          2.2164   -0.1003    0.1117 C.ar      1 <0>         0.1324
     10 C9          2.3926    1.3556    0.0436 C.ar      1 <0>         0.1325
     11 N2          1.4955    2.1657    0.5648 N.ar      1 <0>        -0.1543
     12 C10         0.4123    1.6548    1.1643 C.ar      1 <0>        -0.1043
     13 C11         0.2346    0.1846    1.2335 C.ar      1 <0>        -0.1044
     14 N3          1.1588   -0.6223    0.6963 N.ar      1 <0>        -0.1542
     15 N4         -0.9041    0.0604    1.8728 N.2       1 <0>        -0.0317
     16 O1         -1.3331    1.1641    2.1379 O.3       1 <0>         0.1434
     17 N5         -0.6547    2.1047    1.7806 N.2       1 <0>        -0.0317
     18 N6          3.5109    1.8806   -0.5741 N.pl3     1 <0>        -0.2726
     19 C12         3.6293    3.2619   -0.7478 C.ar      1 <0>         0.0496
     20 C13         2.5000    4.0315   -0.9980 C.ar      1 <0>        -0.1108
     21 C14         2.6200    5.3971   -1.1644 C.ar      1 <0>        -0.1086
     22 C15         3.8638    5.9973   -1.0928 C.ar      1 <0>        -0.0838
     23 C16         4.9907    5.2336   -0.8492 C.ar      1 <0>        -0.1109
     24 C17         4.8773    3.8682   -0.6765 C.ar      1 <0>        -0.1542
     25 C18         3.9915    7.4872   -1.2802 C.3       1 <0>        -0.1738
     26 H1          2.3811   -6.8794   -1.6540 H         1 <0>         0.0856
     27 H2          3.0387   -7.0354   -0.0073 H         1 <0>         0.0819
     28 H3          1.2973   -6.7554   -0.2475 H         1 <0>         0.0847
     29 H4          0.4642   -4.5614   -0.8603 H         1 <0>         0.1381
     30 H5          0.8383   -2.1303   -0.7811 H         1 <0>         0.1584
     31 H6          5.0239   -2.8030   -0.2130 H         1 <0>         0.1273
     32 H7          4.6370   -5.2324   -0.2834 H         1 <0>         0.1339
     33 H8          3.9903   -0.5564   -0.8015 H         1 <0>         0.2415
     34 H9          4.2141    1.2904   -0.8872 H         1 <0>         0.2415
     35 H10         1.5288    3.5628   -1.0581 H         1 <0>         0.1581
     36 H11         1.7420    5.9965   -1.3545 H         1 <0>         0.1381
     37 H12         5.9606    5.7055   -0.7942 H         1 <0>         0.1339
     38 H13         5.7577    3.2724   -0.4859 H         1 <0>         0.1273
     39 H14         4.1474    7.7085   -2.3361 H         1 <0>         0.0856
     40 H15         3.0796    7.9760   -0.9373 H         1 <0>         0.0847
     41 H16         4.8399    7.8546   -0.7029 H         1 <0>         0.0819
@<TRIPOS>BOND
     1    1    2 1
     2    1   26 1
     3    1   27 1
     4    1   28 1
     5    2    7 ar
     6    2    3 ar
     7    3    4 ar
     8    3   29 1
     9    4    5 ar
    10    4   30 1
    11    5    6 ar
    12    5    8 1
    13    6    7 ar
    14    6   31 1
    15    7   32 1
    16    8    9 1
    17    8   33 1
    18    9   14 ar
    19    9   10 ar
    20   10   11 ar
    21   10   18 1
    22   11   12 ar
    23   12   17 2
    24   12   13 ar
    25   13   14 ar
    26   13   15 2
    27   15   16 1
    28   16   17 1
    29   18   19 1
    30   18   34 1
    31   19   24 ar
    32   19   20 ar
    33   20   21 ar
    34   20   35 1
    35   21   22 ar
    36   21   36 1
    37   22   23 ar
    38   22   25 1
    39   23   24 ar
    40   23   37 1
    41   24   38 1
    42   25   39 1
    43   25   40 1
    44   25   41 1
@<TRIPOS>MOLECULE
ZINC00314236
   40    41     0     0     0
SMALL
USER_CHARGES

@<TRIPOS>ATOM
      1 C1         -2.1809    9.6498   -2.5844 C.3       1 <0>        -0.0517
      2 O1         -3.3314    9.0065   -1.9754 O.3       1 <0>        -0.2615
      3 C2         -3.1251    7.8101   -1.3907 C.2       1 <0>         0.3643
      4 O2         -2.0141    7.3178   -1.3898 O.2       1 <0>        -0.3922
      5 C3         -4.2469    7.0986   -0.7523 C.ar      1 <0>        -0.1598
      6 C4         -5.5459    7.6049   -0.8478 C.ar      1 <0>        -0.0602
      7 C5         -6.5903    6.9347   -0.2491 C.ar      1 <0>        -0.1660
      8 C6         -6.3599    5.7594    0.4480 C.ar      1 <0>        -0.0759
      9 C7         -5.0832    5.2442    0.5465 C.ar      1 <0>        -0.1468
     10 C8         -4.0172    5.9085   -0.0453 C.ar      1 <0>         0.1346
     11 N1         -2.7276    5.3933    0.0574 N.am      1 <0>        -0.3216
     12 C9         -2.5322    4.0597    0.0519 C.2       1 <0>         0.2994
     13 O3         -3.4835    3.3076    0.0391 O.2       1 <0>        -0.3067
     14 C10        -1.1318    3.5033    0.0616 C.3       1 <0>        -0.0410
     15 O4         -1.1865    2.0754    0.0532 O.3       1 <0>        -0.1366
     16 C11        -0.0023    1.4136    0.0603 C.ar      1 <0>         0.1523
     17 C12         1.1909    2.1208    0.0693 C.ar      1 <0>        -0.2376
     18 C13         2.3953    1.4460    0.0708 C.ar      1 <0>        -0.0643
     19 C14         2.4226    0.0608    0.0634 C.ar      1 <0>        -0.1775
     20 C15         1.2469   -0.6577    0.0545 C.ar      1 <0>        -0.0685
     21 C16         0.0210    0.0125    0.0528 C.ar      1 <0>        -0.1559
     22 C17        -1.2416   -0.7506    0.0428 C.2       1 <0>         0.3434
     23 O5         -2.3066   -0.1638    0.0410 O.2       1 <0>        -0.3291
     24 N2         -1.2147   -2.0981    0.0356 N.am      1 <0>        -0.4363
     25 H1         -2.4845   10.6028   -3.0176 H         1 <0>         0.1051
     26 H2         -1.4173    9.8222   -1.8259 H         1 <0>         0.0806
     27 H3         -1.7772    9.0072   -3.3668 H         1 <0>         0.0841
     28 H4         -5.7311    8.5201   -1.3904 H         1 <0>         0.1483
     29 H5         -7.5937    7.3272   -0.3237 H         1 <0>         0.1354
     30 H6         -7.1851    5.2409    0.9133 H         1 <0>         0.1388
     31 H7         -4.9126    4.3254    1.0880 H         1 <0>         0.1766
     32 H8         -1.9699    5.9941    0.1330 H         1 <0>         0.2564
     33 H9         -0.6125    3.8418    0.9582 H         1 <0>         0.0920
     34 H10        -0.5963    3.8515   -0.8217 H         1 <0>         0.1026
     35 H11         1.1778    3.2007    0.0751 H         1 <0>         0.1375
     36 H12         3.3216    2.0012    0.0778 H         1 <0>         0.1328
     37 H13         3.3697   -0.4582    0.0643 H         1 <0>         0.1338
     38 H14         1.2730   -1.7373    0.0484 H         1 <0>         0.1302
     39 H15        -0.3651   -2.5662    0.0370 H         1 <0>         0.2101
     40 H16        -2.0448   -2.5998    0.0290 H         1 <0>         0.2310
@<TRIPOS>BOND
     1    1    2 1
     2    1   25 1
     3    1   26 1
     4    1   27 1
     5    2    3 1
     6    3    4 2
     7    3    5 1
     8    5   10 ar
     9    5    6 ar
    10    6    7 ar
    11    6   28 1
    12    7    8 ar
    13    7   29 1
    14    8    9 ar
    15    8   30 1
    16    9   10 ar
    17    9   31 1
    18   10   11 1
    19   11   12 am
    20   11   32 1
    21   12   13 2
    22   12   14 1
    23   14   15 1
    24   14   33 1
    25   14   34 1
    26   15   16 1
    27   16   21 ar
    28   16   17 ar
    29   17   18 ar
    30   17   35 1
    31   18   19 ar
    32   18   36 1
    33   19   20 ar
    34   19   37 1
    35   20   21 ar
    36   20   38 1
    37   21   22 1
    38   22   23 2
    39   22   24 am
    40   24   39 1
    41   24   40 1
@<TRIPOS>MOLECULE
ZINC00314337
   41    42     0     0     0
SMALL
USER_CHARGES

@<TRIPOS>ATOM
      1 C1          8.2681    3.6678   -0.3447 C.3       1 <0>        -0.2069
      2 C2          7.6729    3.1262   -1.6459 C.3       1 <0>        -0.1401
      3 C3          8.7763    2.4667   -2.4757 C.3       1 <0>        -0.1924
      4 C4          6.6086    2.1084   -1.3260 C.2       1 <0>         0.3051
      5 O1          6.7214    0.9678   -1.7227 O.2       1 <0>        -0.3553
      6 N1          5.5313    2.4656   -0.5992 N.am      1 <0>        -0.3244
      7 C5          4.6000    1.4979   -0.2066 C.ar      1 <0>         0.0815
      8 C6          5.0213    0.2079    0.0918 C.ar      1 <0>        -0.1400
      9 C7          4.1027   -0.7480    0.4799 C.ar      1 <0>        -0.0976
     10 C8          2.7624   -0.4249    0.5728 C.ar      1 <0>        -0.1790
     11 C9          2.3346    0.8627    0.2750 C.ar      1 <0>         0.0735
     12 C10         3.2543    1.8238   -0.1207 C.ar      1 <0>        -0.1559
     13 N2          0.9778    1.1887    0.3683 N.am      1 <0>        -0.3162
     14 C11         0.6070    2.4269    0.7504 C.2       1 <0>         0.3415
     15 O2          1.4474    3.2317    1.1021 O.2       1 <0>        -0.3108
     16 C12        -0.8222    2.8042    0.7475 C.ar      1 <0>        -0.0642
     17 C13        -1.7505    2.0399    1.4568 C.ar      1 <0>        -0.1133
     18 C14        -3.0819    2.4006    1.4542 C.ar      1 <0>        -0.0926
     19 C15        -3.4997    3.5109    0.7418 C.ar      1 <0>        -0.1188
     20 C16        -2.5858    4.2695    0.0326 C.ar      1 <0>        -0.0724
     21 C17        -1.2503    3.9228    0.0310 C.ar      1 <0>        -0.0715
     22 N3         -0.2740    4.7351   -0.7292 N.pl3     1 <0>         0.5471
     23 O3         -0.6258    5.7763   -1.2542 O.2       1 <0>        -0.3558
     24 O4          0.8812    4.3623   -0.8297 O.3       1 <0>        -0.3282
     25 H1          8.7083    2.8477    0.2226 H         1 <0>         0.0860
     26 H2          9.0380    4.4040   -0.5760 H         1 <0>         0.0837
     27 H3          7.4821    4.1377    0.2465 H         1 <0>         0.0730
     28 H4          7.2327    3.9463   -2.2131 H         1 <0>         0.1070
     29 H5          8.3522    2.0808   -3.4027 H         1 <0>         0.0907
     30 H6          9.5461    3.2028   -2.7071 H         1 <0>         0.0726
     31 H7          9.2165    1.6466   -1.9085 H         1 <0>         0.0893
     32 H8          5.4016    3.3936   -0.3482 H         1 <0>         0.2392
     33 H9          6.0682   -0.0476    0.0205 H         1 <0>         0.1592
     34 H10         4.4328   -1.7498    0.7116 H         1 <0>         0.1346
     35 H11         2.0467   -1.1744    0.8769 H         1 <0>         0.1251
     36 H12         2.9237    2.8245   -0.3568 H         1 <0>         0.1734
     37 H13         0.3037    0.5237    0.1581 H         1 <0>         0.2323
     38 H14        -1.4264    1.1703    2.0093 H         1 <0>         0.1518
     39 H15        -3.8005    1.8123    2.0056 H         1 <0>         0.1469
     40 H16        -4.5441    3.7862    0.7391 H         1 <0>         0.1507
     41 H17        -2.9185    5.1349   -0.5214 H         1 <0>         0.1709
@<TRIPOS>BOND
     1    1    2 1
     2    1   25 1
     3    1   26 1
     4    1   27 1
     5    2    3 1
     6    2    4 1
     7    2   28 1
     8    3   29 1
     9    3   30 1
    10    3   31 1
    11    4    5 2
    12    4    6 am
    13    6    7 1
    14    6   32 1
    15    7   12 ar
    16    7    8 ar
    17    8    9 ar
    18    8   33 1
    19    9   10 ar
    20    9   34 1
    21   10   11 ar
    22   10   35 1
    23   11   12 ar
    24   11   13 1
    25   12   36 1
    26   13   14 am
    27   13   37 1
    28   14   15 2
    29   14   16 1
    30   16   21 ar
    31   16   17 ar
    32   17   18 ar
    33   17   38 1
    34   18   19 ar
    35   18   39 1
    36   19   20 ar
    37   19   40 1
    38   20   21 ar
    39   20   41 1
    40   21   22 1
    41   22   23 2
    42   22   24 1
@<TRIPOS>MOLECULE
ZINC00314531
   39    41     0     0     0
SMALL
USER_CHARGES

@<TRIPOS>ATOM
      1 C1         -0.0378    1.0983   -2.4885 C.3       1 <0>        -0.2113
      2 C2         -0.7538    1.5922   -1.2299 C.3       1 <0>        -0.1586
      3 C3         -0.0140    1.0854    0.0098 C.3       1 <0>        -0.1155
      4 C4         -0.7193    1.5718    1.2495 C.2       1 <0>         0.0663
      5 C5         -1.6398    0.7747    1.8667 C.2       1 <0>        -0.2966
      6 C6         -2.2817    1.2480    3.0245 C.2       1 <0>         0.3288
      7 O1         -3.1062    0.5599    3.6036 O.2       1 <0>        -0.3590
      8 N1         -1.9719    2.4806    3.4806 N.am      1 <0>        -0.2696
      9 H1         -2.4186    2.8393    4.3002 H         1 <0>         0.2586
     10 C7         -1.0489    3.2334    2.8203 C.2       1 <0>        -0.0053
     11 N2         -0.4477    2.7796    1.7373 N.2       1 <0>        -0.2639
     12 S1         -0.6506    4.8404    3.4231 S.3       1 <0>         0.2536
     13 C8          0.5808    5.3406    2.1943 C.3       1 <0>        -0.2182
     14 C9          1.0782    6.7261    2.5169 C.2       1 <0>         0.1053
     15 N3          0.4531    7.7538    1.9938 N.2       1 <0>        -0.1907
     16 C10         0.8607    9.0030    2.2592 C.ar      1 <0>         0.0533
     17 C11         0.2110   10.1254    1.7270 C.ar      1 <0>        -0.1188
     18 C12         0.6669   11.3735    2.0302 C.ar      1 <0>        -0.0840
     19 C13         1.7662   11.5531    2.8657 C.ar      1 <0>        -0.1510
     20 C14         2.4183   10.4840    3.4049 C.ar      1 <0>        -0.0410
     21 C15         1.9757    9.1880    3.1138 C.ar      1 <0>        -0.1653
     22 C16         2.6100    8.0402    3.6422 C.2       1 <0>         0.2962
     23 N4          2.1266    6.8514    3.3157 N.am      1 <0>        -0.2317
     24 O2          3.6817    8.1535    4.4599 O.2       1 <0>        -0.4143
     25 H2          0.9849    1.4754   -2.4964 H         1 <0>         0.0744
     26 H3         -0.0232    0.0084   -2.4943 H         1 <0>         0.0744
     27 H4         -0.5648    1.4593   -3.3717 H         1 <0>         0.0786
     28 H5         -1.7765    1.2151   -1.2221 H         1 <0>         0.0870
     29 H6         -0.7685    2.6820   -1.2241 H         1 <0>         0.0905
     30 H7          0.0006   -0.0045    0.0040 H         1 <0>         0.0993
     31 H8          1.0087    1.4626    0.0020 H         1 <0>         0.1031
     32 H9         -1.8685   -0.2049    1.4740 H         1 <0>         0.1713
     33 H10         1.4166    4.6412    2.2120 H         1 <0>         0.1338
     34 H11         0.1266    5.3393    1.2035 H         1 <0>         0.1656
     35 H12        -0.6432   10.0017    1.0776 H         1 <0>         0.1527
     36 H13         0.1675   12.2368    1.6161 H         1 <0>         0.1377
     37 H14         2.1073   12.5531    3.0895 H         1 <0>         0.1393
     38 H15         3.2700   10.6356    4.0514 H         1 <0>         0.1639
     39 H16         2.5634    6.0294    3.6809 H         1 <0>         0.2611
@<TRIPOS>BOND
     1    1    2 1
     2    1   25 1
     3    1   26 1
     4    1   27 1
     5    2    3 1
     6    2   28 1
     7    2   29 1
     8    3    4 1
     9    3   30 1
    10    3   31 1
    11    4   11 1
    12    4    5 2
    13    5    6 1
    14    5   32 1
    15    6    7 2
    16    6    8 am
    17    8    9 1
    18    8   10 1
    19   10   11 2
    20   10   12 1
    21   12   13 1
    22   13   14 1
    23   13   33 1
    24   13   34 1
    25   14   15 2
    26   14   23 1
    27   15   16 1
    28   16   17 ar
    29   16   21 ar
    30   17   18 ar
    31   17   35 1
    32   18   19 ar
    33   18   36 1
    34   19   20 ar
    35   19   37 1
    36   20   21 ar
    37   20   38 1
    38   21   22 1
    39   22   23 am
    40   22   24 2
    41   23   39 1
@<TRIPOS>MOLECULE
ZINC00314545
   41    42     0     0     0
SMALL
USER_CHARGES

@<TRIPOS>ATOM
      1 C1         -5.8900    1.7094   -0.8490 C.3       1 <0>        -0.1926
      2 C2         -4.8129    0.9589   -0.0631 C.3       1 <0>        -0.1394
      3 C3         -4.6368   -0.4429   -0.6502 C.3       1 <0>        -0.2065
      4 C4         -3.5094    1.7094   -0.1549 C.2       1 <0>         0.3068
      5 O1         -3.4478    2.7429   -0.7868 O.2       1 <0>        -0.3520
      6 N1         -2.4119    1.2323    0.4651 N.am      1 <0>        -0.3263
      7 C5         -1.1802    1.8756    0.3008 C.ar      1 <0>         0.0793
      8 C6         -1.1278    3.2597    0.1905 C.ar      1 <0>        -0.1374
      9 C7          0.0872    3.8952    0.0222 C.ar      1 <0>        -0.0954
     10 C8          1.2544    3.1577   -0.0314 C.ar      1 <0>        -0.1741
     11 C9          1.2093    1.7740    0.0835 C.ar      1 <0>         0.0713
     12 C10        -0.0098    1.1326    0.2528 C.ar      1 <0>        -0.1613
     13 N2          2.3910    1.0281    0.0283 N.am      1 <0>        -0.3178
     14 C11         2.3862   -0.2023   -0.5218 C.2       1 <0>         0.3407
     15 O2          1.3783   -0.6268   -1.0527 O.2       1 <0>        -0.3394
     16 C12         3.6063   -1.0355   -0.4796 C.ar      1 <0>        -0.0879
     17 C13         4.7670   -0.5488    0.1241 C.ar      1 <0>        -0.1147
     18 C14         5.9008   -1.3337    0.1647 C.ar      1 <0>        -0.0781
     19 C15         5.8926   -2.5962   -0.4014 C.ar      1 <0>        -0.0902
     20 C16         4.7471   -3.0826   -1.0060 C.ar      1 <0>        -0.0791
     21 C17         3.6047   -2.3103   -1.0484 C.ar      1 <0>        -0.0751
     22 N3          7.1146   -3.4303   -0.3596 N.pl3     1 <0>         0.5449
     23 O3          7.1103   -4.5423   -0.8567 O.2       1 <0>        -0.3474
     24 O4          8.1246   -3.0048    0.1720 O.3       1 <0>        -0.3502
     25 H1         -5.5890    1.7882   -1.8936 H         1 <0>         0.0931
     26 H2         -6.8329    1.1665   -0.7825 H         1 <0>         0.0737
     27 H3         -6.0155    2.7080   -0.4306 H         1 <0>         0.0890
     28 H4         -5.1140    0.8800    0.9816 H         1 <0>         0.1033
     29 H5         -4.3357   -0.3641   -1.6949 H         1 <0>         0.0913
     30 H6         -3.8694   -0.9776   -0.0903 H         1 <0>         0.0703
     31 H7         -5.5796   -0.9858   -0.5838 H         1 <0>         0.0839
     32 H8         -2.4759    0.4429    1.0252 H         1 <0>         0.2337
     33 H9         -2.0383    3.8390    0.2320 H         1 <0>         0.1667
     34 H10         0.1248    4.9708   -0.0675 H         1 <0>         0.1378
     35 H11         2.2027    3.6574   -0.1632 H         1 <0>         0.1289
     36 H12        -0.0475    0.0570    0.3424 H         1 <0>         0.1571
     37 H13         3.2141    1.3963    0.3859 H         1 <0>         0.2340
     38 H14         4.7762    0.4384    0.5621 H         1 <0>         0.1424
     39 H15         6.7981   -0.9602    0.6357 H         1 <0>         0.1696
     40 H16         4.7473   -4.0689   -1.4460 H         1 <0>         0.1726
     41 H17         2.7111   -2.6912   -1.5203 H         1 <0>         0.1743
@<TRIPOS>BOND
     1    1    2 1
     2    1   25 1
     3    1   26 1
     4    1   27 1
     5    2    3 1
     6    2    4 1
     7    2   28 1
     8    3   29 1
     9    3   30 1
    10    3   31 1
    11    4    5 2
    12    4    6 am
    13    6    7 1
    14    6   32 1
    15    7   12 ar
    16    7    8 ar
    17    8    9 ar
    18    8   33 1
    19    9   10 ar
    20    9   34 1
    21   10   11 ar
    22   10   35 1
    23   11   12 ar
    24   11   13 1
    25   12   36 1
    26   13   14 am
    27   13   37 1
    28   14   15 2
    29   14   16 1
    30   16   21 ar
    31   16   17 ar
    32   17   18 ar
    33   17   38 1
    34   18   19 ar
    35   18   39 1
    36   19   20 ar
    37   19   22 1
    38   20   21 ar
    39   20   40 1
    40   21   41 1
    41   22   23 2
    42   22   24 1
@<TRIPOS>MOLECULE
ZINC00318835
   39    40     0     0     0
SMALL
USER_CHARGES

@<TRIPOS>ATOM
      1 C1          2.5158   14.0549   -1.6497 C.3       1 <0>        -0.2387
      2 C2          2.8313   12.5887   -1.5015 C.2       1 <0>         0.3014
      3 O1          3.3986   11.9971   -2.3956 O.2       1 <0>        -0.3562
      4 N1          2.4831   11.9349   -0.3756 N.am      1 <0>        -0.3289
      5 C3          2.6886   10.5529   -0.2762 C.ar      1 <0>         0.0494
      6 C4          1.7829    9.7647    0.4217 C.ar      1 <0>        -0.1450
      7 C5          1.9851    8.4026    0.5192 C.ar      1 <0>        -0.1084
      8 C6          3.0942    7.8206   -0.0805 C.ar      1 <0>         0.0385
      9 C7          4.0029    8.6096   -0.7735 C.ar      1 <0>        -0.1413
     10 C8          3.7977    9.9709   -0.8759 C.ar      1 <0>        -0.1101
     11 N2          3.2994    6.4385    0.0184 N.am      1 <0>        -0.3238
     12 C9          2.2451    5.5990    0.0182 C.2       1 <0>         0.2998
     13 O2          1.1163    6.0430    0.0169 O.2       1 <0>        -0.3179
     14 C10         2.4685    4.1087    0.0196 C.3       1 <0>        -0.0416
     15 O3          1.2068    3.4378    0.0190 O.3       1 <0>        -0.1669
     16 C11         1.2305    2.0790    0.0201 C.ar      1 <0>         0.1378
     17 C12         0.0420    1.3634    0.0196 C.ar      1 <0>        -0.1602
     18 C13         0.0688   -0.0178    0.0212 C.ar      1 <0>        -0.0323
     19 C14         1.2787   -0.6870    0.0232 C.ar      1 <0>        -0.1518
     20 C15         2.4646    0.0240    0.0242 C.ar      1 <0>        -0.0274
     21 C16         2.4432    1.4053    0.0231 C.ar      1 <0>        -0.2369
     22 N3          1.3045   -2.1668    0.0249 N.pl3     1 <0>         0.5535
     23 O4          0.2605   -2.7941    0.0245 O.2       1 <0>        -0.3572
     24 O5          2.3698   -2.7573    0.0267 O.3       1 <0>        -0.3605
     25 H1          3.3476   14.6460   -1.2666 H         1 <0>         0.1055
     26 H2          2.3589   14.2881   -2.7028 H         1 <0>         0.1197
     27 H3          1.6127   14.2909   -1.0868 H         1 <0>         0.0850
     28 H4          2.0903   12.4214    0.3660 H         1 <0>         0.2324
     29 H5          0.9202   10.2173    0.8878 H         1 <0>         0.1355
     30 H6          1.2806    7.7896    1.0617 H         1 <0>         0.1666
     31 H7          4.8680    8.1577   -1.2358 H         1 <0>         0.1333
     32 H8          4.5018   10.5838   -1.4190 H         1 <0>         0.1693
     33 H9          4.2003    6.0857    0.0871 H         1 <0>         0.2303
     34 H10         3.0298    3.8263    0.9103 H         1 <0>         0.0971
     35 H11         3.0313    3.8249   -0.8697 H         1 <0>         0.1008
     36 H12        -0.9033    1.8856    0.0136 H         1 <0>         0.1665
     37 H13        -0.8561   -0.5754    0.0205 H         1 <0>         0.1714
     38 H14         3.4084   -0.5010    0.0261 H         1 <0>         0.1661
     39 H15         3.3698    1.9601    0.0238 H         1 <0>         0.1454
@<TRIPOS>BOND
     1    1    2 1
     2    1   25 1
     3    1   26 1
     4    1   27 1
     5    2    3 2
     6    2    4 am
     7    4    5 1
     8    4   28 1
     9    5   10 ar
    10    5    6 ar
    11    6    7 ar
    12    6   29 1
    13    7    8 ar
    14    7   30 1
    15    8    9 ar
    16    8   11 1
    17    9   10 ar
    18    9   31 1
    19   10   32 1
    20   11   12 am
    21   11   33 1
    22   12   13 2
    23   12   14 1
    24   14   15 1
    25   14   34 1
    26   14   35 1
    27   15   16 1
    28   16   21 ar
    29   16   17 ar
    30   17   18 ar
    31   17   36 1
    32   18   19 ar
    33   18   37 1
    34   19   20 ar
    35   19   22 1
    36   20   21 ar
    37   20   38 1
    38   21   39 1
    39   22   23 2
    40   22   24 1
@<TRIPOS>MOLECULE
ZINC00327475
   44    46     0     0     0
SMALL
USER_CHARGES

@<TRIPOS>ATOM
      1 C1          2.3236   15.2450    1.8380 C.3       1 <0>        -0.1709
      2 C2          1.7524   13.8764    1.5705 C.ar      1 <0>        -0.1007
      3 C3          1.7761   13.3573    0.2890 C.ar      1 <0>        -0.1045
      4 C4          1.2534   12.1033    0.0405 C.ar      1 <0>        -0.1644
      5 C5          0.7041   11.3633    1.0794 C.ar      1 <0>         0.0805
      6 C6          0.6775   11.8894    2.3643 C.ar      1 <0>        -0.1565
      7 C7          1.2062   13.1420    2.6071 C.ar      1 <0>        -0.1038
      8 N1          0.1733   10.0927    0.8309 N.am      1 <0>        -0.2726
      9 C8          0.0391    9.4979   -0.5041 C.3       1 <0>        -0.0084
     10 C9         -0.1663    7.9860   -0.2629 C.3       1 <0>        -0.1587
     11 H1         -0.8638    7.5665   -0.9880 H         1 <0>         0.1199
     12 C10        -0.7717    7.9731    1.1599 C.3       1 <0>        -0.1947
     13 C11        -0.2796    9.2602    1.7841 C.2       1 <0>         0.3155
     14 O1         -0.2913    9.5051    2.9719 O.2       1 <0>        -0.3387
     15 C12         1.1488    7.2509   -0.2961 C.2       1 <0>         0.3164
     16 O2          2.1792    7.8599   -0.4940 O.2       1 <0>        -0.3065
     17 N2          1.1803    5.9170   -0.1060 N.am      1 <0>        -0.3372
     18 N3          2.4029    5.2336   -0.1368 N.2       1 <0>         0.0159
     19 C13         2.4233    3.9371   -0.0800 C.2       1 <0>        -0.1030
     20 C14         1.2240    3.1643   -0.4493 C.ar      1 <0>        -0.1255
     21 C15         0.2826    3.7058   -1.3277 C.ar      1 <0>        -0.1222
     22 C16        -0.8377    2.9776   -1.6688 C.ar      1 <0>        -0.1375
     23 C17        -1.0365    1.7137   -1.1398 C.ar      1 <0>        -0.1014
     24 C18        -0.1096    1.1645   -0.2742 C.ar      1 <0>        -0.1539
     25 C19         1.0214    1.8822    0.0792 C.ar      1 <0>         0.0958
     26 O3          1.9302    1.3454    0.9337 O.3       1 <0>        -0.2882
     27 H2          1.5424   15.9951    1.7154 H         1 <0>         0.0823
     28 H3          2.7091   15.2851    2.8568 H         1 <0>         0.0808
     29 H4          3.1326   15.4448    1.1354 H         1 <0>         0.0794
     30 H5          2.2034   13.9333   -0.5185 H         1 <0>         0.1308
     31 H6          1.2722   11.6985   -0.9606 H         1 <0>         0.1304
     32 H7          0.2474   11.3180    3.1736 H         1 <0>         0.1799
     33 H8          1.1892   13.5502    3.6069 H         1 <0>         0.1338
     34 H9          0.9455    9.6674   -1.0854 H         1 <0>         0.1315
     35 H10        -0.8244    9.9185   -1.0194 H         1 <0>         0.0927
     36 H11        -1.8606    7.9647    1.1111 H         1 <0>         0.1217
     37 H12        -0.4074    7.1130    1.7217 H         1 <0>         0.1235
     38 H13         0.3564    5.4301    0.0523 H         1 <0>         0.2196
     39 H14         3.3192    3.4245    0.2379 H         1 <0>         0.1987
     40 H15         0.4316    4.6933   -1.7387 H         1 <0>         0.1461
     41 H16        -1.5652    3.3968   -2.3480 H         1 <0>         0.1361
     42 H17        -1.9190    1.1520   -1.4084 H         1 <0>         0.1377
     43 H18        -0.2696    0.1763    0.1311 H         1 <0>         0.1458
     44 H19         1.7160    1.4746    1.8678 H         1 <0>         0.2348
@<TRIPOS>BOND
     1    1    2 1
     2    1   27 1
     3    1   28 1
     4    1   29 1
     5    2    7 ar
     6    2    3 ar
     7    3    4 ar
     8    3   30 1
     9    4    5 ar
    10    4   31 1
    11    5    6 ar
    12    5    8 1
    13    6    7 ar
    14    6   32 1
    15    7   33 1
    16    8   13 am
    17    8    9 1
    18    9   10 1
    19    9   34 1
    20    9   35 1
    21   10   11 1
    22   10   12 1
    23   10   15 1
    24   12   13 1
    25   12   36 1
    26   12   37 1
    27   13   14 2
    28   15   16 2
    29   15   17 am
    30   17   18 1
    31   17   38 1
    32   18   19 2
    33   19   20 1
    34   19   39 1
    35   20   25 ar
    36   20   21 ar
    37   21   22 ar
    38   21   40 1
    39   22   23 ar
    40   22   41 1
    41   23   24 ar
    42   23   42 1
    43   24   25 ar
    44   24   43 1
    45   25   26 1
    46   26   44 1
@<TRIPOS>MOLECULE
ZINC00337066
   42    44     0     0     0
SMALL
USER_CHARGES

@<TRIPOS>ATOM
      1 C1         11.0944    3.1112   -0.3054 C.3       1 <0>        -0.0756
      2 N1         11.6320    1.7528   -0.1957 N.pl3     1 <0>        -0.1125
      3 C2         12.9330    1.3936   -0.3916 C.2       1 <0>        -0.1229
      4 C3         13.0419    0.0611   -0.2032 C.2       1 <0>        -0.2118
      5 C4         11.7670   -0.4287    0.1264 C.2       1 <0>        -0.1636
      6 C5         10.9112    0.6304    0.1206 C.2       1 <0>        -0.0220
      7 C6          9.4609    0.5798    0.4107 C.2       1 <0>        -0.0401
      8 C7          8.5931    1.6846    0.5124 C.2       1 <0>        -0.1701
      9 C8          7.3516    1.1477    0.7950 C.2       1 <0>        -0.1622
     10 N2          7.5166   -0.2083    0.8405 N.pl3     1 <0>        -0.1104
     11 H1          6.7887   -0.8694    1.0225 H         1 <0>         0.2808
     12 N3          8.7448   -0.5075    0.6149 N.2       1 <0>        -0.0622
     13 C9          6.0975    1.8896    1.0002 C.2       1 <0>         0.3903
     14 O1          6.0910    3.1043    0.9310 O.2       1 <0>        -0.2978
     15 N4          4.9561    1.2235    1.2648 N.am      1 <0>        -0.3360
     16 N5          3.7621    1.9299    1.4601 N.2       1 <0>         0.0365
     17 C10         2.6626    1.2883    1.7150 C.2       1 <0>        -0.1127
     18 C11         1.4066    2.0313    1.9205 C.ar      1 <0>        -0.0445
     19 C12         0.2208    1.3439    2.1951 C.ar      1 <0>        -0.1352
     20 C13        -0.9532    2.0422    2.3811 C.ar      1 <0>        -0.1054
     21 C14        -0.9631    3.4247    2.3078 C.ar      1 <0>        -0.1986
     22 C15         0.2049    4.1196    2.0363 C.ar      1 <0>         0.0654
     23 C16         1.3951    3.4289    1.8412 C.ar      1 <0>         0.0846
     24 O2          2.5424    4.1071    1.5752 O.3       1 <0>        -0.2504
     25 O3          0.1865    5.4774    1.9611 O.3       1 <0>        -0.1953
     26 C17        -1.0714    6.1218    2.1722 C.3       1 <0>        -0.0653
     27 H2         11.0482    3.5647    0.6847 H         1 <0>         0.0896
     28 H3         11.7419    3.7074   -0.9483 H         1 <0>         0.0930
     29 H4         10.0930    3.0721   -0.7341 H         1 <0>         0.1021
     30 H5         13.7399    2.0622   -0.6529 H         1 <0>         0.1646
     31 H6         13.9468   -0.5225   -0.2870 H         1 <0>         0.1481
     32 H7         11.5124   -1.4559    0.3422 H         1 <0>         0.1571
     33 H8          8.8448    2.7284    0.3967 H         1 <0>         0.1797
     34 H9          4.9614    0.2551    1.3199 H         1 <0>         0.1951
     35 H10         2.6685    0.2100    1.7764 H         1 <0>         0.1161
     36 H11         0.2235    0.2657    2.2571 H         1 <0>         0.1328
     37 H12        -1.8688    1.5085    2.5887 H         1 <0>         0.1347
     38 H13        -1.8865    3.9642    2.4586 H         1 <0>         0.1395
     39 H14         2.7036    4.2529    0.6330 H         1 <0>         0.2377
     40 H15        -1.7860    5.7774    1.4248 H         1 <0>         0.0653
     41 H16        -1.4416    5.8786    3.1682 H         1 <0>         0.0692
     42 H17        -0.9459    7.2011    2.0848 H         1 <0>         0.1123
@<TRIPOS>BOND
     1    1    2 1
     2    1   27 1
     3    1   28 1
     4    1   29 1
     5    2    6 1
     6    2    3 1
     7    3    4 2
     8    3   30 1
     9    4    5 1
    10    4   31 1
    11    5    6 2
    12    5   32 1
    13    6    7 1
    14    7   12 2
    15    7    8 1
    16    8    9 2
    17    8   33 1
    18    9   10 1
    19    9   13 1
    20   10   11 1
    21   10   12 1
    22   13   14 2
    23   13   15 am
    24   15   16 1
    25   15   34 1
    26   16   17 2
    27   17   18 1
    28   17   35 1
    29   18   23 ar
    30   18   19 ar
    31   19   20 ar
    32   19   36 1
    33   20   21 ar
    34   20   37 1
    35   21   22 ar
    36   21   38 1
    37   22   23 ar
    38   22   25 1
    39   23   24 1
    40   24   39 1
    41   25   26 1
    42   26   40 1
    43   26   41 1
    44   26   42 1
@<TRIPOS>MOLECULE
ZINC00337066
   42    44     0     0     0
SMALL
USER_CHARGES

@<TRIPOS>ATOM
      1 C1         11.0912    3.1103   -0.3177 C.3       1 <0>        -0.0781
      2 N1         11.6290    1.7519   -0.2091 N.pl3     1 <0>        -0.1006
      3 C2         12.9293    1.3924   -0.4089 C.2       1 <0>        -0.1178
      4 C3         13.0387    0.0600   -0.2203 C.2       1 <0>        -0.2013
      5 C4         11.7647   -0.4295    0.1134 C.2       1 <0>        -0.1952
      6 C5         10.9090    0.6297    0.1098 C.2       1 <0>        -0.0367
      7 C6          9.4596    0.5794    0.4044 C.2       1 <0>        -0.0507
      8 C7          8.5923    1.6843    0.5084 C.2       1 <0>        -0.1915
      9 C8          7.3516    1.1477    0.7950 C.2       1 <0>        -0.1476
     10 N2          7.5186   -0.2077    0.8504 N.2       1 <0>        -0.1218
     11 H1          9.1107   -1.4382    0.6083 H         1 <0>         0.2896
     12 N3          8.7460   -0.5071    0.6210 N.pl3     1 <0>        -0.0412
     13 C9          6.0975    1.8896    1.0002 C.2       1 <0>         0.4086
     14 O1          6.0910    3.1043    0.9310 O.2       1 <0>        -0.3167
     15 N4          4.9561    1.2235    1.2648 N.am      1 <0>        -0.3225
     16 N5          3.7621    1.9299    1.4601 N.2       1 <0>         0.0323
     17 C10         2.6626    1.2883    1.7150 C.2       1 <0>        -0.1206
     18 C11         1.4066    2.0313    1.9205 C.ar      1 <0>        -0.0388
     19 C12         0.2208    1.3439    2.1951 C.ar      1 <0>        -0.1369
     20 C13        -0.9532    2.0422    2.3811 C.ar      1 <0>        -0.1064
     21 C14        -0.9631    3.4247    2.3078 C.ar      1 <0>        -0.2019
     22 C15         0.2049    4.1196    2.0363 C.ar      1 <0>         0.0642
     23 C16         1.3951    3.4289    1.8412 C.ar      1 <0>         0.0824
     24 O2          2.5424    4.1071    1.5752 O.3       1 <0>        -0.2499
     25 O3          0.1865    5.4774    1.9611 O.3       1 <0>        -0.1962
     26 C17        -1.0714    6.1218    2.1722 C.3       1 <0>        -0.0649
     27 H2         11.0481    3.5642    0.6724 H         1 <0>         0.0945
     28 H3         11.7368    3.7062   -0.9628 H         1 <0>         0.0953
     29 H4         10.0885    3.0712   -0.7433 H         1 <0>         0.1087
     30 H5         13.7355    2.0608   -0.6730 H         1 <0>         0.1693
     31 H6         13.9432   -0.5237   -0.3067 H         1 <0>         0.1513
     32 H7         11.5107   -1.4566    0.3304 H         1 <0>         0.1397
     33 H8          8.8433    2.7279    0.3895 H         1 <0>         0.1782
     34 H9          4.9614    0.2551    1.3199 H         1 <0>         0.2203
     35 H10         2.6685    0.2100    1.7764 H         1 <0>         0.1184
     36 H11         0.2235    0.2657    2.2571 H         1 <0>         0.1329
     37 H12        -1.8688    1.5085    2.5887 H         1 <0>         0.1329
     38 H13        -1.8865    3.9642    2.4586 H         1 <0>         0.1377
     39 H14         2.7036    4.2529    0.6330 H         1 <0>         0.2368
     40 H15        -1.7860    5.7774    1.4248 H         1 <0>         0.0647
     41 H16        -1.4416    5.8786    3.1682 H         1 <0>         0.0686
     42 H17        -0.9459    7.2011    2.0848 H         1 <0>         0.1107
@<TRIPOS>BOND
     1    1    2 1
     2    1   27 1
     3    1   28 1
     4    1   29 1
     5    2    6 1
     6    2    3 1
     7    3    4 2
     8    3   30 1
     9    4    5 1
    10    4   31 1
    11    5    6 2
    12    5   32 1
    13    6    7 1
    14    7    8 2
    15    7   12 1
    16    8   33 1
    17    8    9 1
    18    9   13 1
    19    9   10 2
    20   10   12 1
    21   11   12 1
    22   13   14 2
    23   13   15 am
    24   15   16 1
    25   15   34 1
    26   16   17 2
    27   17   18 1
    28   17   35 1
    29   18   23 ar
    30   18   19 ar
    31   19   20 ar
    32   19   36 1
    33   20   21 ar
    34   20   37 1
    35   21   22 ar
    36   21   38 1
    37   22   23 ar
    38   22   25 1
    39   23   24 1
    40   24   39 1
    41   25   26 1
    42   26   40 1
    43   26   41 1
    44   26   42 1
@<TRIPOS>MOLECULE
ZINC00338018
   48    49     0     0     0
SMALL
USER_CHARGES

@<TRIPOS>ATOM
      1 C1         -7.0119    0.1993    3.3640 C.3       1 <0>        -0.2100
      2 C2         -7.5954   -0.2376    2.0188 C.3       1 <0>        -0.0571
      3 C3         -6.4763   -0.7756    1.1179 C.3       1 <0>        -0.1262
      4 C4         -5.4826    0.3227    0.8487 C.2       1 <0>         0.1299
      5 C5         -5.8642    1.6178    0.8147 C.2       1 <0>        -0.3999
      6 C6         -7.1911    1.9987    1.0377 C.2       1 <0>         0.2862
      7 O1         -7.4950    3.1747    0.9968 O.2       1 <0>        -0.3221
      8 C7         -8.2475    0.9641    1.3277 C.3       1 <0>        -0.1934
      9 N1         -4.1759    0.0042    0.6301 N.pl3     1 <0>        -0.2259
     10 N2         -3.2270    1.0200    0.4557 N.am      1 <0>        -0.2778
     11 C8         -1.9563    0.7071    0.1335 C.2       1 <0>         0.3484
     12 O2         -1.6332   -0.4579   -0.0059 O.2       1 <0>        -0.3807
     13 C9         -0.9645    1.7688   -0.0487 C.2       1 <0>        -0.1843
     14 C10         0.3065    1.4557   -0.3710 C.2       1 <0>        -0.0155
     15 C11         1.3374    2.5061   -0.4044 C.ar      1 <0>        -0.0798
     16 C12         1.0568    3.7479   -0.9828 C.ar      1 <0>        -0.1225
     17 C13         2.0256    4.7290   -1.0044 C.ar      1 <0>        -0.1289
     18 C14         3.2770    4.4827   -0.4670 C.ar      1 <0>        -0.1147
     19 C15         3.5643    3.2541    0.1017 C.ar      1 <0>        -0.1310
     20 C16         2.6040    2.2651    0.1369 C.ar      1 <0>        -0.1019
     21 C17        -1.3646    3.2114    0.1240 C.3       1 <0>        -0.1436
     22 C18        -2.0224    3.7157   -1.1621 C.3       1 <0>        -0.0072
     23 O3         -2.2781    5.1170   -1.0484 O.3       1 <0>        -0.3533
     24 C19        -8.6430   -1.3296    2.2449 C.3       1 <0>        -0.2026
     25 H1         -7.8089    0.5920    3.9955 H         1 <0>         0.0840
     26 H2         -6.5484   -0.6569    3.8543 H         1 <0>         0.0741
     27 H3         -6.2627    0.9739    3.2007 H         1 <0>         0.0909
     28 H4         -6.8990   -1.1222    0.1749 H         1 <0>         0.1107
     29 H5         -5.9752   -1.6044    1.6179 H         1 <0>         0.0969
     30 H6         -5.1256    2.3787    0.6103 H         1 <0>         0.1380
     31 H7         -8.9464    1.3545    1.9270 H         1 <0>         0.1067
     32 H8         -8.7081    0.6417    0.3938 H         1 <0>         0.1055
     33 H9         -3.9028   -0.9259    0.5952 H         1 <0>         0.2763
     34 H10        -3.4845    1.9486    0.5669 H         1 <0>         0.2695
     35 H11         0.5676    0.4351   -0.6089 H         1 <0>         0.1618
     36 H12         0.0824    3.9398   -1.4072 H         1 <0>         0.1519
     37 H13         1.8088    5.6904   -1.4461 H         1 <0>         0.1355
     38 H14         4.0332    5.2535   -0.4912 H         1 <0>         0.1318
     39 H15         4.5430    3.0696    0.5194 H         1 <0>         0.1336
     40 H16         2.8295    1.3071    0.5816 H         1 <0>         0.1362
     41 H17        -2.0702    3.2963    0.9504 H         1 <0>         0.0946
     42 H18        -0.4798    3.8106    0.3387 H         1 <0>         0.1309
     43 H19        -1.3563    3.5351   -2.0058 H         1 <0>         0.0683
     44 H20        -2.9619    3.1866   -1.3212 H         1 <0>         0.0626
     45 H21        -2.6954    5.5053   -1.8296 H         1 <0>         0.2172
     46 H22        -9.0544   -1.6427    1.2853 H         1 <0>         0.0753
     47 H23        -8.1773   -2.1836    2.7366 H         1 <0>         0.0767
     48 H24        -9.4437   -0.9403    2.8738 H         1 <0>         0.0850
@<TRIPOS>BOND
     1    1    2 1
     2    1   25 1
     3    1   26 1
     4    1   27 1
     5    2    8 1
     6    2    3 1
     7    2   24 1
     8    3    4 1
     9    3   28 1
    10    3   29 1
    11    4    5 2
    12    4    9 1
    13    5    6 1
    14    5   30 1
    15    6    7 2
    16    6    8 1
    17    8   31 1
    18    8   32 1
    19    9   10 1
    20    9   33 1
    21   10   11 am
    22   10   34 1
    23   11   12 2
    24   11   13 1
    25   13   14 2
    26   13   21 1
    27   14   15 1
    28   14   35 1
    29   15   20 ar
    30   15   16 ar
    31   16   17 ar
    32   16   36 1
    33   17   18 ar
    34   17   37 1
    35   18   19 ar
    36   18   38 1
    37   19   20 ar
    38   19   39 1
    39   20   40 1
    40   21   22 1
    41   21   41 1
    42   21   42 1
    43   22   23 1
    44   22   43 1
    45   22   44 1
    46   23   45 1
    47   24   46 1
    48   24   47 1
    49   24   48 1
@<TRIPOS>MOLECULE
ZINC00338129
   41    43     0     0     0
SMALL
USER_CHARGES

@<TRIPOS>ATOM
      1 C1          2.4636    3.7929   -0.8897 C.3       1 <0>        -0.1772
      2 C2          1.1638    3.0559   -0.6937 C.ar      1 <0>        -0.0625
      3 C3         -0.0240    3.6324   -1.1075 C.ar      1 <0>        -0.1313
      4 C4         -1.2173    2.9630   -0.9315 C.ar      1 <0>        -0.1164
      5 C5         -1.2252    1.7037   -0.3291 C.ar      1 <0>        -0.0207
      6 C6         -0.0228    1.1260    0.0821 C.ar      1 <0>        -0.0815
      7 C7          1.1635    1.8060   -0.1003 C.ar      1 <0>        -0.1338
      8 C8         -2.5006    0.9833   -0.1318 C.2       1 <0>        -0.0228
      9 N1         -2.6435   -0.2996    0.1080 N.2       1 <0>        -0.0776
     10 N2         -3.8898   -0.5889    0.2262 N.2       1 <0>        -0.1139
     11 C9         -4.6221    0.4914    0.0694 C.2       1 <0>        -0.2227
     12 N3         -3.7641    1.5323   -0.1587 N.pl3     1 <0>        -0.1059
     13 C10        -4.1002    2.8755   -0.3769 C.ar      1 <0>         0.0221
     14 C11        -3.7752    3.8366    0.5708 C.ar      1 <0>        -0.1080
     15 C12        -4.1026    5.1602    0.3504 C.ar      1 <0>        -0.1225
     16 C13        -4.7635    5.5269   -0.8075 C.ar      1 <0>        -0.1145
     17 C14        -5.0937    4.5711   -1.7506 C.ar      1 <0>        -0.1208
     18 C15        -4.7638    3.2467   -1.5385 C.ar      1 <0>        -0.1134
     19 S1         -6.3801    0.5828    0.1452 S.3       1 <0>         0.3362
     20 C16        -6.7710   -1.1524    0.4802 C.3       1 <0>        -0.3111
     21 C17        -8.2648   -1.3189    0.5888 C.2       1 <0>         0.3171
     22 O1         -8.9935   -0.3589    0.4531 O.2       1 <0>        -0.3399
     23 N4         -8.7911   -2.5347    0.8368 N.am      1 <0>        -0.3262
     24 N5        -10.1452   -2.6856    0.9353 N.3       1 <0>        -0.2105
     25 H1          2.6679    4.4086   -0.0137 H         1 <0>         0.0879
     26 H2          3.2719    3.0743   -1.0253 H         1 <0>         0.0842
     27 H3          2.3912    4.4290   -1.7719 H         1 <0>         0.0829
     28 H4         -0.0168    4.6085   -1.5697 H         1 <0>         0.1333
     29 H5         -2.1437    3.4141   -1.2549 H         1 <0>         0.1417
     30 H6         -0.0217    0.1504    0.5453 H         1 <0>         0.1537
     31 H7          2.0940    1.3619    0.2210 H         1 <0>         0.1359
     32 H8         -3.2633    3.5501    1.4776 H         1 <0>         0.1500
     33 H9         -3.8461    5.9090    1.0853 H         1 <0>         0.1409
     34 H10        -5.0221    6.5619   -0.9757 H         1 <0>         0.1372
     35 H11        -5.6102    4.8603   -2.6539 H         1 <0>         0.1414
     36 H12        -5.0216    2.5007   -2.2756 H         1 <0>         0.1503
     37 H13        -6.3944   -1.7732   -0.3328 H         1 <0>         0.1330
     38 H14        -6.3025   -1.4562    1.4163 H         1 <0>         0.1393
     39 H15        -8.2084   -3.3025    0.9453 H         1 <0>         0.2257
     40 H16       -10.6078   -2.3502    0.1037 H         1 <0>         0.1624
     41 H17       -10.3892   -3.6466    1.1223 H         1 <0>         0.1580
@<TRIPOS>BOND
     1    1    2 1
     2    1   25 1
     3    1   26 1
     4    1   27 1
     5    2    7 ar
     6    2    3 ar
     7    3    4 ar
     8    3   28 1
     9    4    5 ar
    10    4   29 1
    11    5    6 ar
    12    5    8 1
    13    6    7 ar
    14    6   30 1
    15    7   31 1
    16    8   12 1
    17    8    9 2
    18    9   10 1
    19   10   11 2
    20   11   12 1
    21   11   19 1
    22   12   13 1
    23   13   18 ar
    24   13   14 ar
    25   14   15 ar
    26   14   32 1
    27   15   16 ar
    28   15   33 1
    29   16   17 ar
    30   16   34 1
    31   17   18 ar
    32   17   35 1
    33   18   36 1
    34   19   20 1
    35   20   21 1
    36   20   37 1
    37   20   38 1
    38   21   22 2
    39   21   23 am
    40   23   24 1
    41   23   39 1
    42   24   40 1
    43   24   41 1
@<TRIPOS>MOLECULE
ZINC00340320
   40    41     0     0     0
SMALL
USER_CHARGES

@<TRIPOS>ATOM
      1 C1         -4.2489   10.5649    2.0303 C.3       1 <0>        -0.1961
      2 C2         -4.8651   10.7719    0.6707 C.2       1 <0>         0.0745
      3 C3         -4.1862   10.4069   -0.4789 C.2       1 <0>        -0.1872
      4 C4         -4.7766   10.6137   -1.7121 C.2       1 <0>         0.0853
      5 N1         -5.9808   11.1434   -1.8129 N.am      1 <0>        -0.1642
      6 C5         -6.6719   11.5099   -0.7476 C.2       1 <0>         0.2772
      7 C6         -6.1386   11.3373    0.5390 C.2       1 <0>        -0.1146
      8 C7         -6.8838   11.7325    1.6962 C.1       1 <0>        -0.0560
      9 N2         -7.4749   12.0462    2.6142 N.1       1 <0>        -0.0338
     10 O1         -7.9030   12.0552   -0.8985 O.2       1 <0>        -0.4238
     11 C8         -4.0363   10.2159   -2.9629 C.3       1 <0>        -0.1988
     12 C9         -2.8148    9.7891   -0.3874 C.3       1 <0>        -0.2141
     13 S1         -2.9708    7.9859   -0.2654 S.3       1 <0>         0.1128
     14 C10        -1.2560    7.4028   -0.1643 C.3       1 <0>        -0.3011
     15 C11        -1.2420    5.8997   -0.0575 C.2       1 <0>         0.3162
     16 O2         -2.2860    5.2824   -0.0503 O.2       1 <0>        -0.3230
     17 N3         -0.0693    5.2412    0.0299 N.am      1 <0>        -0.3249
     18 C12        -0.0499    3.8421    0.0178 C.ar      1 <0>         0.0593
     19 C13        -0.9890    3.1396   -0.7260 C.ar      1 <0>        -0.1257
     20 C14        -0.9674    1.7587   -0.7356 C.ar      1 <0>        -0.1091
     21 C15        -0.0122    1.0756   -0.0055 C.ar      1 <0>        -0.1413
     22 C16         0.9211    1.7721    0.7403 C.ar      1 <0>        -0.1103
     23 C17         0.9082    3.1532    0.7498 C.ar      1 <0>        -0.1595
     24 H1         -3.6793   11.4511    2.3098 H         1 <0>         0.1017
     25 H2         -5.0365   10.3929    2.7638 H         1 <0>         0.1103
     26 H3         -3.5852    9.7008    2.0005 H         1 <0>         0.1030
     27 H4         -6.3816   11.2710   -2.7202 H         1 <0>         0.2652
     28 H5         -4.2820    9.1851   -3.2182 H         1 <0>         0.1227
     29 H6         -4.3281   10.8727   -3.7824 H         1 <0>         0.0930
     30 H7         -2.9630   10.3021   -2.7929 H         1 <0>         0.1095
     31 H8         -2.3028   10.1701    0.4964 H         1 <0>         0.1090
     32 H9         -2.2409   10.0446   -1.2781 H         1 <0>         0.0993
     33 H10        -0.7769    7.8340    0.7147 H         1 <0>         0.1151
     34 H11        -0.7149    7.7085   -1.0598 H         1 <0>         0.1130
     35 H12         0.7612    5.7372    0.1014 H         1 <0>         0.2308
     36 H13        -1.7351    3.6726   -1.2966 H         1 <0>         0.1588
     37 H14        -1.6977    1.2119   -1.3135 H         1 <0>         0.1354
     38 H15         0.0024   -0.0042   -0.0144 H         1 <0>         0.1310
     39 H16         1.6633    1.2356    1.3126 H         1 <0>         0.1320
     40 H17         1.6398    3.6966    1.3292 H         1 <0>         0.1281
@<TRIPOS>BOND
     1    1    2 1
     2    1   24 1
     3    1   25 1
     4    1   26 1
     5    2    7 2
     6    2    3 1
     7    3   12 1
     8    3    4 2
     9    4   11 1
    10    4    5 1
    11    5   27 1
    12    5    6 am
    13    6   10 2
    14    6    7 1
    15    7    8 1
    16    8    9 3
    17   11   28 1
    18   11   29 1
    19   11   30 1
    20   12   13 1
    21   12   31 1
    22   12   32 1
    23   13   14 1
    24   14   15 1
    25   14   33 1
    26   14   34 1
    27   15   16 2
    28   15   17 am
    29   17   18 1
    30   17   35 1
    31   18   23 ar
    32   18   19 ar
    33   19   20 ar
    34   19   36 1
    35   20   21 ar
    36   20   37 1
    37   21   22 ar
    38   21   38 1
    39   22   23 ar
    40   22   39 1
    41   23   40 1
@<TRIPOS>MOLECULE
ZINC00340320
   40    41     0     0     0
SMALL
USER_CHARGES

@<TRIPOS>ATOM
      1 C1         -4.2349   10.5964    2.0286 C.3       1 <0>        -0.1934
      2 C2         -4.8560   10.7923    0.6696 C.ar      1 <0>         0.0617
      3 C3         -4.1817   10.4170   -0.4794 C.ar      1 <0>        -0.1778
      4 C4         -4.7763   10.6144   -1.7121 C.ar      1 <0>         0.0974
      5 N1         -5.9801   11.1449   -1.8130 N.ar      1 <0>        -0.1956
      6 C5         -6.6712   11.5114   -0.7477 C.ar      1 <0>         0.2221
      7 C6         -6.1293   11.3583    0.5378 C.ar      1 <0>        -0.1815
      8 C7         -6.8698   11.7639    1.6944 C.1       1 <0>        -0.0930
      9 N2         -7.4572   12.0859    2.6119 N.1       1 <0>        -0.0341
     10 O1         -7.9018   12.0579   -0.8986 O.3       1 <0>        -0.2186
     11 C8         -4.0360   10.2166   -2.9629 C.3       1 <0>        -0.1746
     12 C9         -2.8104    9.7989   -0.3878 C.3       1 <0>        -0.2221
     13 S1         -2.9673    7.9970   -0.2498 S.3       1 <0>         0.1152
     14 C10        -1.2525    7.4134   -0.1501 C.3       1 <0>        -0.3016
     15 C11        -1.2392    5.9113   -0.0306 C.2       1 <0>         0.3165
     16 O2         -2.2836    5.2949   -0.0141 O.2       1 <0>        -0.3234
     17 N3         -0.0667    5.2527    0.0581 N.am      1 <0>        -0.3257
     18 C12        -0.0483    3.8535    0.0579 C.ar      1 <0>         0.0603
     19 C13        -0.9907    3.1454   -0.6764 C.ar      1 <0>        -0.1254
     20 C14        -0.9702    1.7645   -0.6742 C.ar      1 <0>        -0.1093
     21 C15        -0.0127    1.0869    0.0581 C.ar      1 <0>        -0.1423
     22 C16         0.9239    1.7890    0.7944 C.ar      1 <0>        -0.1108
     23 C17         0.9120    3.1702    0.7921 C.ar      1 <0>        -0.1604
     24 H1         -3.6636   11.4846    2.2983 H         1 <0>         0.0984
     25 H2         -5.0198   10.4313    2.7665 H         1 <0>         0.1020
     26 H3         -3.5719    9.7316    2.0037 H         1 <0>         0.1054
     27 H4         -8.2822   12.2758    0.0001 H         1 <0>         0.2510
     28 H5         -4.2823    9.1860   -3.2186 H         1 <0>         0.1142
     29 H6         -4.3273   10.8738   -3.7823 H         1 <0>         0.1069
     30 H7         -2.9627   10.3021   -2.7927 H         1 <0>         0.0868
     31 H8         -2.2948   10.1871    0.4908 H         1 <0>         0.1028
     32 H9         -2.2397   10.0464   -1.2828 H         1 <0>         0.1062
     33 H10        -0.7698    7.8518    0.7233 H         1 <0>         0.1131
     34 H11        -0.7146    7.7111   -1.0503 H         1 <0>         0.1144
     35 H12         0.7645    5.7487    0.1222 H         1 <0>         0.2307
     36 H13        -1.7386    3.6741   -1.2487 H         1 <0>         0.1599
     37 H14        -1.7030    1.2133   -1.2447 H         1 <0>         0.1352
     38 H15         0.0011    0.0070    0.0584 H         1 <0>         0.1304
     39 H16         1.6679    1.2569    1.3684 H         1 <0>         0.1312
     40 H17         1.6462    3.7180    1.3641 H         1 <0>         0.1277
@<TRIPOS>BOND
     1    1    2 1
     2    1   24 1
     3    1   25 1
     4    1   26 1
     5    2    7 ar
     6    2    3 ar
     7    3   12 1
     8    3    4 ar
     9    4   11 1
    10    4    5 ar
    11    5    6 ar
    12    6   10 1
    13    6    7 ar
    14    7    8 1
    15    8    9 3
    16   10   27 1
    17   11   28 1
    18   11   29 1
    19   11   30 1
    20   12   13 1
    21   12   31 1
    22   12   32 1
    23   13   14 1
    24   14   15 1
    25   14   33 1
    26   14   34 1
    27   15   16 2
    28   15   17 am
    29   17   18 1
    30   17   35 1
    31   18   23 ar
    32   18   19 ar
    33   19   20 ar
    34   19   36 1
    35   20   21 ar
    36   20   37 1
    37   21   22 ar
    38   21   38 1
    39   22   23 ar
    40   22   39 1
    41   23   40 1
@<TRIPOS>MOLECULE
ZINC00344276
   41    44     0     0     0
SMALL
USER_CHARGES

@<TRIPOS>ATOM
      1 C1         -6.8639    3.5541   -7.6463 C.3       1 <0>        -0.0632
      2 O1         -5.4992    3.2283   -7.9174 O.3       1 <0>        -0.2108
      3 C2         -4.8384    2.5058   -6.9750 C.ar      1 <0>         0.1072
      4 C3         -3.5110    2.1544   -7.1732 C.ar      1 <0>        -0.1530
      5 C4         -2.8414    1.4202   -6.2135 C.ar      1 <0>        -0.0731
      6 C5         -3.4929    1.0356   -5.0563 C.ar      1 <0>        -0.1271
      7 C6         -4.8175    1.3797   -4.8589 C.ar      1 <0>        -0.0684
      8 C7         -5.4899    2.1186   -5.8130 C.ar      1 <0>        -0.2153
      9 C8         -2.7600    0.2348   -4.0110 C.3       1 <0>        -0.0425
     10 C9         -2.1027    1.1713   -3.0302 C.2       1 <0>        -0.1029
     11 C10        -1.3213    0.6382   -1.9073 C.2       1 <0>         0.2900
     12 O2         -1.1996   -0.5635   -1.7605 O.2       1 <0>        -0.3228
     13 N1         -0.7405    1.4903   -1.0408 N.am      1 <0>        -0.1764
     14 C11        -0.8849    2.8507   -1.2064 C.2       1 <0>         0.2335
     15 N2         -0.3051    3.6443   -0.3337 N.2       1 <0>        -0.2430
     16 C12        -0.3913    4.9850   -0.4149 C.ar      1 <0>         0.0842
     17 C13         0.2292    5.8197    0.5198 C.ar      1 <0>        -0.1260
     18 C14         0.1141    7.1755    0.3977 C.ar      1 <0>        -0.0838
     19 C15        -0.6117    7.7412   -0.6431 C.ar      1 <0>        -0.1592
     20 C16        -1.2300    6.9521   -1.5730 C.ar      1 <0>        -0.0436
     21 C17        -1.1291    5.5648   -1.4727 C.ar      1 <0>        -0.2016
     22 C18        -1.7617    4.6666   -2.4445 C.2       1 <0>         0.3721
     23 O3         -2.4097    5.1051   -3.3768 O.2       1 <0>        -0.2892
     24 N3         -1.6128    3.3327   -2.2620 N.am      1 <0>        -0.2174
     25 N4         -2.2224    2.4577   -3.1712 N.2       1 <0>         0.0522
     26 N5         -0.0116    1.0048    0.0076 N.3       1 <0>        -0.2023
     27 H1         -7.4392    2.6363   -7.5242 H         1 <0>         0.0664
     28 H2         -6.9218    4.1436   -6.7313 H         1 <0>         0.0717
     29 H3         -7.2716    4.1308   -8.4765 H         1 <0>         0.1079
     30 H4         -3.0017    2.4543   -8.0771 H         1 <0>         0.1447
     31 H5         -1.8079    1.1468   -6.3672 H         1 <0>         0.1314
     32 H6         -5.3256    1.0741   -3.9563 H         1 <0>         0.1293
     33 H7         -6.5232    2.3910   -5.6564 H         1 <0>         0.1363
     34 H8         -1.9993   -0.3802   -4.4918 H         1 <0>         0.1192
     35 H9         -3.4660   -0.4067   -3.4836 H         1 <0>         0.1212
     36 H10         0.7966    5.3945    1.3345 H         1 <0>         0.1513
     37 H11         0.5949    7.8173    1.1210 H         1 <0>         0.1356
     38 H12        -0.6880    8.8158   -0.7187 H         1 <0>         0.1374
     39 H13        -1.7920    7.3999   -2.3792 H         1 <0>         0.1547
     40 H14         0.0021   -0.0041    0.0020 H         1 <0>         0.1978
     41 H15         0.9253    1.3792    0.0006 H         1 <0>         0.1776
@<TRIPOS>BOND
     1    1    2 1
     2    1   27 1
     3    1   28 1
     4    1   29 1
     5    2    3 1
     6    3    8 ar
     7    3    4 ar
     8    4    5 ar
     9    4   30 1
    10    5    6 ar
    11    5   31 1
    12    6    7 ar
    13    6    9 1
    14    7    8 ar
    15    7   32 1
    16    8   33 1
    17    9   10 1
    18    9   34 1
    19    9   35 1
    20   10   25 2
    21   10   11 1
    22   11   12 2
    23   11   13 am
    24   13   14 1
    25   13   26 1
    26   14   24 1
    27   14   15 2
    28   15   16 1
    29   16   21 ar
    30   16   17 ar
    31   17   18 ar
    32   17   36 1
    33   18   19 ar
    34   18   37 1
    35   19   20 ar
    36   19   38 1
    37   20   21 ar
    38   20   39 1
    39   21   22 1
    40   22   23 2
    41   22   24 am
    42   24   25 1
    43   26   40 1
    44   26   41 1
@<TRIPOS>MOLECULE
ZINC00350899
   41    43     0     0     0
SMALL
USER_CHARGES

@<TRIPOS>ATOM
      1 C1          7.5041    1.0038   -0.2677 C.3       1 <0>        -0.1759
      2 C2          7.1697    2.4730   -0.2462 C.ar      1 <0>        -0.0978
      3 C3          8.1776    3.4124   -0.3418 C.ar      1 <0>        -0.1359
      4 C4          7.8700    4.7647   -0.3221 C.ar      1 <0>         0.0643
      5 C5          6.5497    5.1749   -0.2063 C.ar      1 <0>        -0.0764
      6 C6          5.5403    4.2370   -0.1174 C.ar      1 <0>        -0.0993
      7 C7          5.8481    2.8828   -0.1308 C.ar      1 <0>         0.0424
      8 N1          4.8256    1.9311   -0.0339 N.pl3     1 <0>        -0.2411
      9 C8          3.6298    2.2629    0.5665 C.2       1 <0>         0.2322
     10 N2          3.4834    3.4136    1.1432 N.2       1 <0>        -0.7014
     11 S1          1.9194    3.4309    1.7387 S.o2      1 <0>         2.6395
     12 O1          1.9963    3.4203    3.1576 O.2       1 <0>        -0.8867
     13 O2          1.1859    4.3989    1.0011 O.2       1 <0>        -0.8926
     14 C9          1.3772    1.8273    1.2149 C.ar      1 <0>        -0.6836
     15 C10         2.5055    1.3147    0.5590 C.ar      1 <0>        -0.1214
     16 C11         2.4045    0.0261    0.0132 C.ar      1 <0>        -0.0752
     17 C12         1.2333   -0.6886    0.1303 C.ar      1 <0>        -0.0999
     18 C13         0.1364   -0.1560    0.7834 C.ar      1 <0>        -0.1068
     19 C14         0.2180    1.1177    1.3292 C.ar      1 <0>         0.0011
     20 C15         6.2167    6.6445   -0.1845 C.3       1 <0>        -0.0763
     21 C16         5.2923    6.9754   -1.3579 C.3       1 <0>        -0.2067
     22 C17         5.5146    6.9888    1.1306 C.3       1 <0>        -0.2022
     23 O3          8.8630    5.6889   -0.4158 O.3       1 <0>        -0.2877
     24 H1          7.4936    0.6437   -1.2965 H         1 <0>         0.0816
     25 H2          8.4945    0.8503    0.1608 H         1 <0>         0.0944
     26 H3          6.7662    0.4546    0.3170 H         1 <0>         0.0734
     27 H4          9.2057    3.0938   -0.4316 H         1 <0>         0.1432
     28 H5          4.5122    4.5565   -0.0321 H         1 <0>         0.1848
     29 H6          4.9587    1.0383   -0.3891 H         1 <0>         0.2464
     30 H7          3.2496   -0.4075   -0.5009 H         1 <0>         0.1298
     31 H8          1.1700   -1.6796   -0.2945 H         1 <0>         0.1415
     32 H9         -0.7766   -0.7267    0.8677 H         1 <0>         0.1455
     33 H10        -0.6331    1.5461    1.8376 H         1 <0>         0.1497
     34 H11         7.1344    7.2263   -0.2696 H         1 <0>         0.1039
     35 H12         4.3745    6.3935   -1.2728 H         1 <0>         0.0819
     36 H13         5.0514    8.0383   -1.3421 H         1 <0>         0.0775
     37 H14         5.7924    6.7301   -2.2948 H         1 <0>         0.0677
     38 H15         4.5969    6.4069    1.2157 H         1 <0>         0.0858
     39 H16         6.1732    6.7530    1.9666 H         1 <0>         0.0825
     40 H17         5.2737    8.0517    1.1464 H         1 <0>         0.0731
     41 H18         9.0719    5.9512   -1.3228 H         1 <0>         0.2249
@<TRIPOS>BOND
     1    1    2 1
     2    1   24 1
     3    1   25 1
     4    1   26 1
     5    2    7 ar
     6    2    3 ar
     7    3    4 ar
     8    3   27 1
     9    4    5 ar
    10    4   23 1
    11    5    6 ar
    12    5   20 1
    13    6    7 ar
    14    6   28 1
    15    7    8 1
    16    8    9 1
    17    8   29 1
    18    9   15 1
    19    9   10 2
    20   10   11 1
    21   11   12 2
    22   11   13 2
    23   11   14 1
    24   14   19 ar
    25   14   15 ar
    26   15   16 ar
    27   16   17 ar
    28   16   30 1
    29   17   18 ar
    30   17   31 1
    31   18   19 ar
    32   18   32 1
    33   19   33 1
    34   20   21 1
    35   20   22 1
    36   20   34 1
    37   21   35 1
    38   21   36 1
    39   21   37 1
    40   22   38 1
    41   22   39 1
    42   22   40 1
    43   23   41 1
@<TRIPOS>MOLECULE
ZINC00352127
   40    41     0     0     0
SMALL
USER_CHARGES

@<TRIPOS>ATOM
      1 C1         -0.0010    1.1106    0.0192 C.3       1 <0>        -0.2103
      2 C2         -0.7126    1.6039    1.2807 C.3       1 <0>        -0.0827
      3 C3          0.0145    1.0955    2.4989 C.2       1 <0>        -0.0462
      4 C4          1.0210    1.7231    3.1332 C.2       1 <0>        -0.2172
      5 C5          1.4006    0.8975    4.2163 C.2       1 <0>        -0.2084
      6 C6          0.6088   -0.1891    4.1743 C.2       1 <0>        -0.0656
      7 O1         -0.2288   -0.0637    3.1319 O.3       1 <0>        -0.0534
      8 C7          0.6536   -1.3499    5.1342 C.3       1 <0>        -0.0628
      9 C8         -0.2890   -1.0777    6.3081 C.3       1 <0>        -0.1870
     10 C9         -0.2442   -2.2386    7.2680 C.2       1 <0>         0.3027
     11 O2          0.4713   -3.1900    7.0360 O.2       1 <0>        -0.3464
     12 N1         -0.9992   -2.2195    8.3843 N.am      1 <0>        -0.3320
     13 C10        -1.0320   -3.3369    9.2259 C.ar      1 <0>         0.1181
     14 C11        -2.2039   -3.6731    9.8908 C.ar      1 <0>        -0.1881
     15 C12        -2.2348   -4.7804   10.7156 C.ar      1 <0>        -0.0090
     16 C13        -1.0969   -5.5466   10.8897 C.ar      1 <0>        -0.7813
     17 C14         0.0733   -5.2110   10.2339 C.ar      1 <0>        -0.0099
     18 C15         0.1090   -4.1087    9.4025 C.ar      1 <0>        -0.1541
     19 S1         -1.1383   -6.9540   11.9491 S.o2      1 <0>         2.7633
     20 O3         -2.4950   -7.3709   12.0177 O.2       1 <0>        -0.9191
     21 O4         -0.0967   -7.8186   11.5168 O.2       1 <0>        -0.9160
     22 N2         -0.7247   -6.4368   13.4669 N.pl3     1 <0>        -0.9319
     23 H1          0.0069    0.0207    0.0092 H         1 <0>         0.0846
     24 H2          1.0240    1.4815    0.0118 H         1 <0>         0.0809
     25 H3         -0.5268    1.4783   -0.8619 H         1 <0>         0.0775
     26 H4         -0.7204    2.6938    1.2907 H         1 <0>         0.1012
     27 H5         -1.7375    1.2331    1.2882 H         1 <0>         0.0959
     28 H6          1.4545    2.6760    2.8675 H         1 <0>         0.1552
     29 H7          2.1797    1.0986    4.9367 H         1 <0>         0.1540
     30 H8          0.3407   -2.2587    4.6201 H         1 <0>         0.1167
     31 H9          1.6706   -1.4747    5.5062 H         1 <0>         0.1190
     32 H10         0.0239   -0.1689    6.8222 H         1 <0>         0.1082
     33 H11        -1.3060   -0.9529    5.9361 H         1 <0>         0.1141
     34 H12        -1.5199   -1.4312    8.6043 H         1 <0>         0.2368
     35 H13        -3.0915   -3.0720    9.7593 H         1 <0>         0.1372
     36 H14        -3.1474   -5.0456   11.2287 H         1 <0>         0.1545
     37 H15         0.9603   -5.8116   10.3717 H         1 <0>         0.1576
     38 H16         1.0230   -3.8474    8.8900 H         1 <0>         0.1721
     39 H17        -0.5180   -5.5017   13.6210 H         1 <0>         0.2288
     40 H18        -0.6892   -7.0689   14.2018 H         1 <0>         0.2431
@<TRIPOS>BOND
     1    1    2 1
     2    1   23 1
     3    1   24 1
     4    1   25 1
     5    2    3 1
     6    2   26 1
     7    2   27 1
     8    3    7 1
     9    3    4 2
    10    4    5 1
    11    4   28 1
    12    5    6 2
    13    5   29 1
    14    6    7 1
    15    6    8 1
    16    8    9 1
    17    8   30 1
    18    8   31 1
    19    9   10 1
    20    9   32 1
    21    9   33 1
    22   10   11 2
    23   10   12 am
    24   12   13 1
    25   12   34 1
    26   13   18 ar
    27   13   14 ar
    28   14   15 ar
    29   14   35 1
    30   15   16 ar
    31   15   36 1
    32   16   17 ar
    33   16   19 1
    34   17   18 ar
    35   17   37 1
    36   18   38 1
    37   19   20 2
    38   19   21 2
    39   19   22 1
    40   22   39 1
    41   22   40 1
@<TRIPOS>MOLECULE
ZINC00357252
   39    40     0     0     0
SMALL
USER_CHARGES

@<TRIPOS>ATOM
      1 C1          2.3358   -0.7914   -1.0248 C.3       1 <0>        -0.2356
      2 C2          0.9870   -0.1428   -0.8483 C.2       1 <0>         0.3025
      3 O1          0.3869    0.2810   -1.8135 O.2       1 <0>        -0.3534
      4 N1          0.4475   -0.0338    0.3819 N.am      1 <0>        -0.3296
      5 C3         -0.7636    0.6482    0.5577 C.ar      1 <0>         0.0683
      6 C4         -0.9835    1.3868    1.7127 C.ar      1 <0>        -0.1495
      7 C5         -2.1750    2.0634    1.8829 C.ar      1 <0>        -0.1261
      8 C6         -3.1574    1.9956    0.9053 C.ar      1 <0>         0.0191
      9 C7         -2.9403    1.2533   -0.2467 C.ar      1 <0>        -0.1098
     10 C8         -1.7469    0.5810   -0.4205 C.ar      1 <0>        -0.1171
     11 O2         -4.3328    2.6570    1.0761 O.3       1 <0>        -0.1421
     12 C9         -4.3366    4.0052    0.9068 C.ar      1 <0>         0.1088
     13 C10        -5.5301    4.7084    0.9655 C.ar      1 <0>        -0.1217
     14 C11        -5.5297    6.0857    0.7979 C.ar      1 <0>         0.0939
     15 C12        -4.3353    6.7544    0.5600 C.ar      1 <0>        -0.1465
     16 C13        -3.1489    6.0498    0.4966 C.ar      1 <0>        -0.0560
     17 C14        -3.1464    4.6786    0.6694 C.ar      1 <0>        -0.1764
     18 N2         -1.8779    6.7646    0.2426 N.pl3     1 <0>         0.5489
     19 O3         -0.8312    6.1444    0.1860 O.2       1 <0>        -0.3494
     20 O4         -1.8787    7.9730    0.0901 O.3       1 <0>        -0.3580
     21 N3         -6.7314    6.7995    0.8617 N.am      1 <0>        -0.3289
     22 C15        -7.7027    6.4094    1.7107 C.2       1 <0>         0.3016
     23 O5         -7.4993    5.5015    2.4888 O.2       1 <0>        -0.3459
     24 C16        -9.0414    7.1012    1.6933 C.3       1 <0>        -0.2349
     25 H1          2.7170   -1.1071   -0.0536 H         1 <0>         0.0788
     26 H2          2.2390   -1.6595   -1.6768 H         1 <0>         0.1142
     27 H3          3.0269   -0.0767   -1.4716 H         1 <0>         0.1184
     28 H4          0.8957   -0.4308    1.1450 H         1 <0>         0.2348
     29 H5         -0.2208    1.4358    2.4759 H         1 <0>         0.1382
     30 H6         -2.3444    2.6416    2.7792 H         1 <0>         0.1481
     31 H7         -3.7051    1.2011   -1.0074 H         1 <0>         0.1489
     32 H8         -1.5780    0.0033   -1.3172 H         1 <0>         0.1735
     33 H9         -6.4579    4.1855    1.1453 H         1 <0>         0.1811
     34 H10        -4.3343    7.8259    0.4250 H         1 <0>         0.1644
     35 H11        -2.2173    4.1304    0.6192 H         1 <0>         0.1806
     36 H12        -6.8655    7.5752    0.2949 H         1 <0>         0.2400
     37 H13        -9.0360    7.8839    0.9347 H         1 <0>         0.0808
     38 H14        -9.8220    6.3764    1.4620 H         1 <0>         0.1177
     39 H15        -9.2344    7.5437    2.6705 H         1 <0>         0.1182
@<TRIPOS>BOND
     1    1    2 1
     2    1   25 1
     3    1   26 1
     4    1   27 1
     5    2    3 2
     6    2    4 am
     7    4    5 1
     8    4   28 1
     9    5   10 ar
    10    5    6 ar
    11    6    7 ar
    12    6   29 1
    13    7    8 ar
    14    7   30 1
    15    8    9 ar
    16    8   11 1
    17    9   10 ar
    18    9   31 1
    19   10   32 1
    20   11   12 1
    21   12   17 ar
    22   12   13 ar
    23   13   14 ar
    24   13   33 1
    25   14   15 ar
    26   14   21 1
    27   15   16 ar
    28   15   34 1
    29   16   17 ar
    30   16   18 1
    31   17   35 1
    32   18   19 2
    33   18   20 1
    34   21   22 am
    35   21   36 1
    36   22   23 2
    37   22   24 1
    38   24   37 1
    39   24   38 1
    40   24   39 1
@<TRIPOS>MOLECULE
ZINC00359140
   41    42     0     0     0
SMALL
USER_CHARGES

@<TRIPOS>ATOM
      1 C1         -5.3916    7.4284    6.9525 C.3       1 <0>        -0.1778
      2 C2         -4.7355    7.1140    8.2723 C.ar      1 <0>        -0.0797
      3 C3         -5.2806    7.5946    9.4471 C.ar      1 <0>        -0.1267
      4 C4         -4.6761    7.3110   10.6579 C.ar      1 <0>        -0.1206
      5 C5         -3.5277    6.5419   10.6965 C.ar      1 <0>        -0.1272
      6 C6         -2.9816    6.0546    9.5249 C.ar      1 <0>        -0.0812
      7 C7         -3.5865    6.3374    8.3088 C.ar      1 <0>         0.0482
      8 O1         -3.0512    5.8591    7.1549 O.3       1 <0>        -0.1986
      9 C8         -3.5042    4.5783    6.7116 C.3       1 <0>        -0.0310
     10 C9         -2.8059    4.2157    5.4263 C.2       1 <0>         0.2966
     11 O2         -1.9997    4.9790    4.9379 O.2       1 <0>        -0.3080
     12 N1         -3.0773    3.0433    4.8195 N.am      1 <0>        -0.3353
     13 C10        -2.3508    2.6565    3.6879 C.ar      1 <0>         0.1216
     14 C11        -1.0137    3.0109    3.5648 C.ar      1 <0>        -0.1534
     15 C12        -0.2992    2.6273    2.4469 C.ar      1 <0>        -0.0054
     16 C13        -0.9138    1.8906    1.4509 C.ar      1 <0>        -0.7835
     17 C14        -2.2465    1.5406    1.5681 C.ar      1 <0>        -0.0119
     18 C15        -2.9652    1.9171    2.6858 C.ar      1 <0>        -0.1878
     19 S1          0.0012    1.4031    0.0262 S.o2      1 <0>         2.7622
     20 O3          1.0760    2.3240   -0.1009 O.2       1 <0>        -0.9151
     21 O4         -0.9459    1.1897   -1.0113 O.2       1 <0>        -0.9145
     22 N2          0.6780   -0.0710    0.3598 N.pl3     1 <0>        -0.9250
     23 C16        -1.7302    5.2160    9.5677 C.3       1 <0>        -0.1703
     24 H1         -6.1251    6.6569    6.7185 H         1 <0>         0.0776
     25 H2         -5.8894    8.3960    7.0156 H         1 <0>         0.0851
     26 H3         -4.6346    7.4597    6.1688 H         1 <0>         0.1041
     27 H4         -6.1775    8.1955    9.4196 H         1 <0>         0.1345
     28 H5         -5.1015    7.6910   11.5749 H         1 <0>         0.1319
     29 H6         -3.0574    6.3217   11.6435 H         1 <0>         0.1341
     30 H7         -4.5806    4.6119    6.5433 H         1 <0>         0.0894
     31 H8         -3.2783    3.8301    7.4714 H         1 <0>         0.0898
     32 H9         -3.7762    2.4676    5.1672 H         1 <0>         0.2340
     33 H10        -0.5330    3.5857    4.3426 H         1 <0>         0.1677
     34 H11         0.7406    2.9026    2.3505 H         1 <0>         0.1559
     35 H12        -2.7248    0.9691    0.7864 H         1 <0>         0.1513
     36 H13        -4.0048    1.6399    2.7786 H         1 <0>         0.1359
     37 H14         1.6420   -0.1774    0.3417 H         1 <0>         0.2427
     38 H15         0.1104   -0.8281    0.5732 H         1 <0>         0.2325
     39 H16        -0.8564    5.8631    9.4911 H         1 <0>         0.0987
     40 H17        -1.6935    4.6659   10.5080 H         1 <0>         0.0776
     41 H18        -1.7355    4.5125    8.7352 H         1 <0>         0.0815
@<TRIPOS>BOND
     1    1    2 1
     2    1   24 1
     3    1   25 1
     4    1   26 1
     5    2    7 ar
     6    2    3 ar
     7    3    4 ar
     8    3   27 1
     9    4    5 ar
    10    4   28 1
    11    5    6 ar
    12    5   29 1
    13    6    7 ar
    14    6   23 1
    15    7    8 1
    16    8    9 1
    17    9   10 1
    18    9   30 1
    19    9   31 1
    20   10   11 2
    21   10   12 am
    22   12   13 1
    23   12   32 1
    24   13   18 ar
    25   13   14 ar
    26   14   15 ar
    27   14   33 1
    28   15   16 ar
    29   15   34 1
    30   16   17 ar
    31   16   19 1
    32   17   18 ar
    33   17   35 1
    34   18   36 1
    35   19   20 2
    36   19   21 2
    37   19   22 1
    38   22   37 1
    39   22   38 1
    40   23   39 1
    41   23   40 1
    42   23   41 1
@<TRIPOS>MOLECULE
ZINC00359424
   39    41     0     0     0
SMALL
USER_CHARGES

@<TRIPOS>ATOM
      1 C1         -1.4620   -3.0361    2.1517 C.3       1 <0>        -0.1301
      2 C2         -0.6645   -1.7915    1.8584 C.2       1 <0>        -0.1210
      3 C3         -1.1364   -0.6449    1.2156 C.2       1 <0>        -0.1545
      4 C4         -0.0576    0.2218    1.1729 C.2       1 <0>        -0.1704
      5 N1          0.9818   -0.4329    1.7707 N.pl3     1 <0>        -0.1132
      6 H1          1.9043   -0.0648    1.8869 H         1 <0>         0.2797
      7 N2          0.5933   -1.5934    2.1607 N.2       1 <0>        -0.0757
      8 C5         -0.0336    1.5739    0.5941 C.2       1 <0>         0.3843
      9 O1         -1.0359    2.0333    0.0798 O.2       1 <0>        -0.2987
     10 N3          1.1003    2.3016    0.6286 N.am      1 <0>        -0.3439
     11 N4          1.1232    3.5894    0.0774 N.2       1 <0>         0.0261
     12 C6          2.2410    4.2451    0.0062 C.2       1 <0>        -0.1106
     13 C7          3.5246    3.5197    0.0383 C.ar      1 <0>        -0.0787
     14 C8          3.5514    2.1333   -0.1344 C.ar      1 <0>        -0.1602
     15 C9          4.7541    1.4585   -0.1038 C.ar      1 <0>        -0.1140
     16 C10         5.9350    2.1496    0.0975 C.ar      1 <0>        -0.1142
     17 C11         5.9189    3.5272    0.2696 C.ar      1 <0>         0.0727
     18 C12         4.7182    4.2162    0.2355 C.ar      1 <0>        -0.1093
     19 O2          7.0830    4.2006    0.4665 O.3       1 <0>        -0.1956
     20 C13         7.2860    4.7761    1.6697 C.2       1 <0>         0.3942
     21 O3          6.4846    4.6053    2.5686 O.2       1 <0>        -0.3271
     22 C14         8.4714    5.6066    1.8935 C.2       1 <0>        -0.1040
     23 C15         8.7969    6.2447    3.0573 C.2       1 <0>        -0.1125
     24 C16        10.0048    6.9190    2.8231 C.2       1 <0>        -0.2379
     25 C17        10.3599    6.6669    1.5435 C.2       1 <0>        -0.0575
     26 O4          9.4367    5.8713    0.9886 O.3       1 <0>        -0.0310
     27 H2         -1.3743   -3.7294    1.3152 H         1 <0>         0.0897
     28 H3         -1.0792   -3.5081    3.0566 H         1 <0>         0.0928
     29 H4         -2.5095   -2.7709    2.2955 H         1 <0>         0.0886
     30 H5         -2.1315   -0.4710    0.8336 H         1 <0>         0.1801
     31 H6          1.9005    1.9338    1.0351 H         1 <0>         0.2206
     32 H7          2.2311    5.3219   -0.0765 H         1 <0>         0.1894
     33 H8          2.6311    1.5906   -0.2921 H         1 <0>         0.1520
     34 H9          4.7736    0.3870   -0.2377 H         1 <0>         0.1412
     35 H10         6.8735    1.6156    0.1205 H         1 <0>         0.1488
     36 H11         4.7049    5.2883    0.3648 H         1 <0>         0.1495
     37 H12         8.2333    6.2327    3.9785 H         1 <0>         0.1775
     38 H13        10.5486    7.5258    3.5320 H         1 <0>         0.1664
     39 H14        11.2450    7.0418    1.0510 H         1 <0>         0.2064
@<TRIPOS>BOND
     1    1    2 1
     2    1   27 1
     3    1   28 1
     4    1   29 1
     5    2    7 2
     6    2    3 1
     7    3    4 2
     8    3   30 1
     9    4    5 1
    10    4    8 1
    11    5    6 1
    12    5    7 1
    13    8    9 2
    14    8   10 am
    15   10   11 1
    16   10   31 1
    17   11   12 2
    18   12   13 1
    19   12   32 1
    20   13   18 ar
    21   13   14 ar
    22   14   15 ar
    23   14   33 1
    24   15   16 ar
    25   15   34 1
    26   16   17 ar
    27   16   35 1
    28   17   18 ar
    29   17   19 1
    30   18   36 1
    31   19   20 1
    32   20   21 2
    33   20   22 1
    34   22   26 1
    35   22   23 2
    36   23   24 1
    37   23   37 1
    38   24   25 2
    39   24   38 1
    40   25   26 1
    41   25   39 1
@<TRIPOS>MOLECULE
ZINC00360394
   40    41     0     0     0
SMALL
USER_CHARGES

@<TRIPOS>ATOM
      1 C1         -6.7694    4.9788    2.3178 C.3       1 <0>        -0.0662
      2 O1         -5.4228    4.5057    2.3878 O.3       1 <0>        -0.1968
      3 C2         -4.7146    4.4850    1.2270 C.ar      1 <0>         0.0781
      4 C3         -5.3030    4.9107    0.0469 C.ar      1 <0>        -0.2043
      5 C4         -4.5816    4.8890   -1.1322 C.ar      1 <0>        -0.0976
      6 C5         -3.2728    4.4437   -1.1373 C.ar      1 <0>        -0.1409
      7 C6         -2.6796    4.0180    0.0366 C.ar      1 <0>        -0.0972
      8 C7         -3.3989    4.0318    1.2209 C.ar      1 <0>         0.0507
      9 O2         -2.8185    3.6086    2.3757 O.3       1 <0>        -0.2199
     10 C8         -2.1379    4.5919    3.1579 C.3       1 <0>        -0.0563
     11 C9         -1.2528    3.5332    0.0272 C.3       1 <0>         0.0434
     12 N1         -1.2348    2.0683    0.0192 N.pl3     1 <0>        -0.3542
     13 C10        -0.0168    1.3849    0.0097 C.ar      1 <0>         0.1737
     14 C11         1.1785    2.0926    0.0020 C.ar      1 <0>        -0.2373
     15 C12         2.3811    1.4138   -0.0131 C.ar      1 <0>         0.0190
     16 C13         2.3962    0.0310   -0.0207 C.ar      1 <0>        -0.8236
     17 C14         1.2082   -0.6767   -0.0131 C.ar      1 <0>         0.0187
     18 C15         0.0021   -0.0041    0.0020 C.ar      1 <0>        -0.2305
     19 S1          3.9328   -0.8311   -0.0394 S.o2      1 <0>         2.7670
     20 O3          4.9015    0.0534    0.5069 O.2       1 <0>        -0.9254
     21 O4          3.6827   -2.1187    0.5073 O.2       1 <0>        -0.9244
     22 N2          4.3450   -1.0627   -1.6264 N.pl3     1 <0>        -0.9327
     23 H1         -6.7752    6.0058    1.9529 H         1 <0>         0.0669
     24 H2         -7.3412    4.3480    1.6371 H         1 <0>         0.0698
     25 H3         -7.2190    4.9432    3.3101 H         1 <0>         0.1128
     26 H4         -6.3253    5.2591    0.0482 H         1 <0>         0.1409
     27 H5         -5.0414    5.2210   -2.0513 H         1 <0>         0.1357
     28 H6         -2.7124    4.4286   -2.0604 H         1 <0>         0.1380
     29 H7         -1.3325    5.0309    2.5691 H         1 <0>         0.0549
     30 H8         -2.8400    5.3721    3.4519 H         1 <0>         0.0681
     31 H9         -1.7220    4.1227    4.0496 H         1 <0>         0.1083
     32 H10        -0.7392    3.8980    0.9167 H         1 <0>         0.0939
     33 H11        -0.7477    3.9077   -0.8632 H         1 <0>         0.0850
     34 H12        -2.0689    1.5731    0.0204 H         1 <0>         0.2410
     35 H13         1.1674    3.1726    0.0076 H         1 <0>         0.1356
     36 H14         3.3107    1.9634   -0.0186 H         1 <0>         0.1493
     37 H15         1.2235   -1.7565   -0.0187 H         1 <0>         0.1505
     38 H16        -0.9254   -0.5574    0.0083 H         1 <0>         0.1373
     39 H17         3.7635   -0.7367   -2.3311 H         1 <0>         0.2285
     40 H18         5.1678   -1.5245   -1.8514 H         1 <0>         0.2401
@<TRIPOS>BOND
     1    1    2 1
     2    1   23 1
     3    1   24 1
     4    1   25 1
     5    2    3 1
     6    3    8 ar
     7    3    4 ar
     8    4    5 ar
     9    4   26 1
    10    5    6 ar
    11    5   27 1
    12    6    7 ar
    13    6   28 1
    14    7    8 ar
    15    7   11 1
    16    8    9 1
    17    9   10 1
    18   10   29 1
    19   10   30 1
    20   10   31 1
    21   11   12 1
    22   11   32 1
    23   11   33 1
    24   12   13 1
    25   12   34 1
    26   13   18 ar
    27   13   14 ar
    28   14   15 ar
    29   14   35 1
    30   15   16 ar
    31   15   36 1
    32   16   17 ar
    33   16   19 1
    34   17   18 ar
    35   17   37 1
    36   18   38 1
    37   19   20 2
    38   19   21 2
    39   19   22 1
    40   22   39 1
    41   22   40 1
@<TRIPOS>MOLECULE
ZINC00366897
   39    41     0     0     0
SMALL
USER_CHARGES

@<TRIPOS>ATOM
      1 C1         -1.3806   -0.5551   -0.1166 C.3       1 <0>        -0.0725
      2 N1         -0.0981    0.1501   -0.0527 N.pl3     1 <0>        -0.1493
      3 C2          0.1193    1.4975   -0.2261 C.2       1 <0>        -0.0360
      4 N2          1.4085    1.7010   -0.0865 N.2       1 <0>        -0.0755
      5 N3          2.0041    0.5890    0.1590 N.2       1 <0>        -0.1118
      6 C3          1.1310   -0.3931    0.1911 C.2       1 <0>        -0.2245
      7 S1          1.4810   -2.0934    0.4929 S.3       1 <0>         0.2904
      8 C4          3.2752   -2.0099    0.7170 C.3       1 <0>        -0.3095
      9 C5          3.8114   -3.3905    0.9953 C.2       1 <0>         0.2829
     10 O1          3.0549   -4.3377    1.0380 O.2       1 <0>        -0.2746
     11 C6          5.2499   -3.5891    1.2149 C.ar      1 <0>        -0.1568
     12 C7          6.1256   -2.4980    1.1604 C.ar      1 <0>        -0.0834
     13 C8          7.4728   -2.6860    1.3733 C.ar      1 <0>        -0.1563
     14 C9          7.9684   -3.9582    1.6295 C.ar      1 <0>         0.0799
     15 C10         7.1033   -5.0513    1.6792 C.ar      1 <0>         0.0309
     16 C11         5.7504   -4.8711    1.4737 C.ar      1 <0>        -0.0783
     17 O2          7.5930   -6.2949    1.9308 O.3       1 <0>        -0.2720
     18 O3          9.2985   -4.1381    1.8324 O.3       1 <0>        -0.2762
     19 C12        -0.9051    2.5220   -0.5207 C.ar      1 <0>        -0.0078
     20 C13        -2.1450    2.1447   -1.0387 C.ar      1 <0>        -0.1321
     21 C14        -3.0988    3.1052   -1.3055 C.ar      1 <0>        -0.1280
     22 C15        -2.8239    4.4410   -1.0723 C.ar      1 <0>        -0.1171
     23 C16        -1.5947    4.8222   -0.5643 C.ar      1 <0>        -0.1284
     24 C17        -0.6344    3.8712   -0.2873 C.ar      1 <0>        -0.0848
     25 H1         -1.6189   -0.7823   -1.1557 H         1 <0>         0.0959
     26 H2         -1.3140   -1.4826    0.4521 H         1 <0>         0.1086
     27 H3         -2.1631    0.0749    0.3062 H         1 <0>         0.1080
     28 H4          3.6985   -1.6491   -0.1141 H         1 <0>         0.1300
     29 H5          3.5064   -1.3543    1.5565 H         1 <0>         0.1441
     30 H6          5.7438   -1.5086    0.9563 H         1 <0>         0.1453
     31 H7          8.1467   -1.8429    1.3361 H         1 <0>         0.1504
     32 H8          5.0796   -5.7167    1.5120 H         1 <0>         0.1664
     33 H9          7.8489   -6.7848    1.1374 H         1 <0>         0.2244
     34 H10         9.7985   -4.3204    1.0250 H         1 <0>         0.2298
     35 H11        -2.3591    1.1028   -1.2257 H         1 <0>         0.1307
     36 H12        -4.0603    2.8142   -1.7021 H         1 <0>         0.1325
     37 H13        -3.5722    5.1894   -1.2874 H         1 <0>         0.1324
     38 H14        -1.3864    5.8666   -0.3845 H         1 <0>         0.1368
     39 H15         0.3246    4.1701    0.1096 H         1 <0>         0.1556
@<TRIPOS>BOND
     1    1    2 1
     2    1   25 1
     3    1   26 1
     4    1   27 1
     5    2    6 1
     6    2    3 1
     7    3    4 2
     8    3   19 1
     9    4    5 1
    10    5    6 2
    11    6    7 1
    12    7    8 1
    13    8    9 1
    14    8   28 1
    15    8   29 1
    16    9   10 2
    17    9   11 1
    18   11   16 ar
    19   11   12 ar
    20   12   13 ar
    21   12   30 1
    22   13   14 ar
    23   13   31 1
    24   14   15 ar
    25   14   18 1
    26   15   16 ar
    27   15   17 1
    28   16   32 1
    29   17   33 1
    30   18   34 1
    31   19   24 ar
    32   19   20 ar
    33   20   21 ar
    34   20   35 1
    35   21   22 ar
    36   21   36 1
    37   22   23 ar
    38   22   37 1
    39   23   24 ar
    40   23   38 1
    41   24   39 1
@<TRIPOS>MOLECULE
ZINC00367746
   43    45     0     0     0
SMALL
USER_CHARGES

@<TRIPOS>ATOM
      1 C1        -10.8687    1.9281    3.5758 C.3       1 <0>        -0.2155
      2 C2        -11.4744    1.7985    2.1768 C.3       1 <0>        -0.0997
      3 C3        -12.9816    1.5628    2.2934 C.3       1 <0>        -0.2098
      4 C4        -11.2188    3.0852    1.3893 C.3       1 <0>        -0.1830
      5 C5         -9.7376    3.2532    1.1685 C.2       1 <0>         0.3022
      6 O1         -8.9626    2.4253    1.5987 O.2       1 <0>        -0.3498
      7 N1         -9.2741    4.3234    0.4930 N.am      1 <0>        -0.3295
      8 C6         -7.8956    4.5242    0.3612 C.ar      1 <0>         0.0951
      9 C7         -7.3767    5.8130    0.3681 C.ar      1 <0>        -0.1907
     10 C8         -6.0158    6.0113    0.2389 C.ar      1 <0>        -0.0748
     11 C9         -5.1665    4.9290    0.1073 C.ar      1 <0>        -0.2271
     12 C10        -5.6798    3.6395    0.0939 C.ar      1 <0>         0.0989
     13 C11        -7.0452    3.4365    0.2238 C.ar      1 <0>        -0.1496
     14 O2         -4.8441    2.5766   -0.0408 O.3       1 <0>        -0.1489
     15 C12        -3.5079    2.8130   -0.0439 C.ar      1 <0>         0.0828
     16 C13        -2.8859    3.2778    1.1073 C.ar      1 <0>        -0.1425
     17 C14        -1.5233    3.5152    1.1197 C.ar      1 <0>        -0.0474
     18 C15        -0.7750    3.2996   -0.0289 C.ar      1 <0>        -0.1452
     19 C16        -1.4048    2.8309   -1.2012 C.ar      1 <0>        -0.1220
     20 C17        -2.7668    2.5887   -1.2022 C.ar      1 <0>        -0.0688
     21 C18        -0.3344    2.7103   -2.2140 C.2       1 <0>         0.3587
     22 O3         -0.4806    2.3332   -3.3592 O.2       1 <0>        -0.2938
     23 N2          0.8277    3.0941   -1.6554 N.am      1 <0>        -0.3549
     24 C19         0.6518    3.4554   -0.3718 C.2       1 <0>         0.3584
     25 O4          1.5227    3.8452    0.3802 O.2       1 <0>        -0.2973
     26 H1         -9.7949    2.0960    3.4928 H         1 <0>         0.1062
     27 H2        -11.3289    2.7690    4.0946 H         1 <0>         0.0640
     28 H3        -11.0507    1.0114    4.1369 H         1 <0>         0.0756
     29 H4        -11.0141    0.9576    1.6581 H         1 <0>         0.1077
     30 H5        -13.4131    1.4705    1.2967 H         1 <0>         0.0700
     31 H6        -13.1636    0.6461    2.8544 H         1 <0>         0.0817
     32 H7        -13.4418    2.4037    2.8121 H         1 <0>         0.0720
     33 H8        -11.6013    3.9372    1.9513 H         1 <0>         0.1040
     34 H9        -11.7256    3.0282    0.4260 H         1 <0>         0.1010
     35 H10        -9.8960    4.9544    0.0982 H         1 <0>         0.2350
     36 H11        -8.0378    6.6603    0.4750 H         1 <0>         0.1326
     37 H12        -5.6143    7.0139    0.2453 H         1 <0>         0.1359
     38 H13        -4.1025    5.0870    0.0109 H         1 <0>         0.1412
     39 H14        -7.4460    2.4337    0.2185 H         1 <0>         0.1802
     40 H15        -3.4686    3.4491    2.0003 H         1 <0>         0.1598
     41 H16        -1.0450    3.8779    2.0175 H         1 <0>         0.1558
     42 H17        -3.2531    2.2271   -2.0962 H         1 <0>         0.1660
     43 H18         1.6804    3.1082   -2.1175 H         1 <0>         0.2654
@<TRIPOS>BOND
     1    1    2 1
     2    1   26 1
     3    1   27 1
     4    1   28 1
     5    2    3 1
     6    2    4 1
     7    2   29 1
     8    3   30 1
     9    3   31 1
    10    3   32 1
    11    4    5 1
    12    4   33 1
    13    4   34 1
    14    5    6 2
    15    5    7 am
    16    7    8 1
    17    7   35 1
    18    8   13 ar
    19    8    9 ar
    20    9   10 ar
    21    9   36 1
    22   10   11 ar
    23   10   37 1
    24   11   12 ar
    25   11   38 1
    26   12   13 ar
    27   12   14 1
    28   13   39 1
    29   14   15 1
    30   15   20 ar
    31   15   16 ar
    32   16   17 ar
    33   16   40 1
    34   17   18 ar
    35   17   41 1
    36   18   24 1
    37   18   19 ar
    38   19   20 ar
    39   19   21 1
    40   20   42 1
    41   21   22 2
    42   21   23 am
    43   23   24 am
    44   23   43 1
    45   24   25 2
@<TRIPOS>MOLECULE
ZINC00368634
   42    44     0     0     0
SMALL
USER_CHARGES

@<TRIPOS>ATOM
      1 C1         -1.3022    4.1145   -0.5888 C.3       1 <0>        -0.2293
      2 C2         -0.9743    3.5132    0.7793 C.3       1 <0>         0.0471
      3 H1         -0.1798    4.0924    1.2498 H         1 <0>         0.1241
      4 C3         -2.2036    3.5464    1.6504 C.2       1 <0>         0.2919
      5 O1         -2.6657    2.5133    2.0870 O.2       1 <0>        -0.2777
      6 N1         -2.7895    4.7240    1.9444 N.am      1 <0>        -0.3429
      7 N2         -3.9323    4.7550    2.7542 N.2       1 <0>         0.0258
      8 C4         -4.5655    5.8724    2.9406 C.2       1 <0>        -0.1135
      9 C5         -4.4100    6.9774    1.9771 C.ar      1 <0>        -0.0644
     10 C6         -3.8194    6.7435    0.7326 C.ar      1 <0>        -0.1814
     11 C7         -3.6802    7.7772   -0.1694 C.ar      1 <0>        -0.1175
     12 C8         -4.1153    9.0527    0.1596 C.ar      1 <0>         0.0552
     13 C9         -4.6996    9.2946    1.4011 C.ar      1 <0>         0.0782
     14 C10        -4.8478    8.2623    2.3083 C.ar      1 <0>        -0.1907
     15 O2         -5.1245   10.5464    1.7202 O.3       1 <0>        -0.1962
     16 C11        -5.7145   10.7222    3.0098 C.3       1 <0>        -0.0671
     17 O3         -3.9709   10.0692   -0.7313 O.3       1 <0>        -0.2728
     18 N3         -0.5331    2.1265    0.6101 N.pl3     1 <0>        -0.1846
     19 C12         0.6834    1.6000    0.9743 C.ar      1 <0>        -0.0186
     20 C13         1.8220    2.1244    1.5767 C.ar      1 <0>        -0.1442
     21 C14         2.8967    1.3153    1.8182 C.ar      1 <0>        -0.0856
     22 C15         2.8630   -0.0281    1.4666 C.ar      1 <0>        -0.1577
     23 C16         1.7585   -0.5666    0.8743 C.ar      1 <0>        -0.0438
     24 C17         0.6430    0.2414    0.6160 C.ar      1 <0>        -0.1155
     25 N4         -0.5603    0.0009    0.0583 N.2       1 <0>        -0.0704
     26 N5         -1.2659    1.0764    0.0371 N.2       1 <0>         0.0684
     27 H2         -0.4131    4.0905   -1.2189 H         1 <0>         0.0992
     28 H3         -2.0967    3.5353   -1.0593 H         1 <0>         0.1152
     29 H4         -1.6305    5.1463   -0.4629 H         1 <0>         0.0797
     30 H5         -2.4199    5.5501    1.5953 H         1 <0>         0.2275
     31 H6         -5.2063    5.9929    3.8015 H         1 <0>         0.1864
     32 H7         -3.4758    5.7524    0.4756 H         1 <0>         0.1539
     33 H8         -3.2272    7.5943   -1.1326 H         1 <0>         0.1480
     34 H9         -5.3011    8.4484    3.2707 H         1 <0>         0.1450
     35 H10        -6.5933   10.0834    3.0974 H         1 <0>         0.0722
     36 H11        -4.9915   10.4532    3.7798 H         1 <0>         0.0666
     37 H12        -6.0087   11.7642    3.1358 H         1 <0>         0.1150
     38 H13        -3.1341   10.5469   -0.6507 H         1 <0>         0.2278
     39 H14         1.8567    3.1678    1.8533 H         1 <0>         0.1273
     40 H15         3.7799    1.7241    2.2864 H         1 <0>         0.1352
     41 H16         3.7210   -0.6534    1.6646 H         1 <0>         0.1374
     42 H17         1.7438   -1.6123    0.6049 H         1 <0>         0.1470
@<TRIPOS>BOND
     1    1    2 1
     2    1   27 1
     3    1   28 1
     4    1   29 1
     5    2    3 1
     6    2    4 1
     7    2   18 1
     8    4    5 2
     9    4    6 am
    10    6    7 1
    11    6   30 1
    12    7    8 2
    13    8    9 1
    14    8   31 1
    15    9   14 ar
    16    9   10 ar
    17   10   11 ar
    18   10   32 1
    19   11   12 ar
    20   11   33 1
    21   12   13 ar
    22   12   17 1
    23   13   14 ar
    24   13   15 1
    25   14   34 1
    26   15   16 1
    27   16   35 1
    28   16   36 1
    29   16   37 1
    30   17   38 1
    31   18   26 1
    32   18   19 1
    33   19   24 ar
    34   19   20 ar
    35   20   21 ar
    36   20   39 1
    37   21   22 ar
    38   21   40 1
    39   22   23 ar
    40   22   41 1
    41   23   24 ar
    42   23   42 1
    43   24   25 1
    44   25   26 2
@<TRIPOS>MOLECULE
ZINC00368635
   42    44     0     0     0
SMALL
USER_CHARGES

@<TRIPOS>ATOM
      1 C1         -2.7528    3.3460   -1.1914 C.3       1 <0>        -0.2265
      2 C2         -1.8781    3.1280    0.0449 C.3       1 <0>         0.0477
      3 H1         -1.0545    3.8419    0.0377 H         1 <0>         0.1232
      4 C3         -2.7062    3.3288    1.2879 C.2       1 <0>         0.2996
      5 O1         -2.8363    2.4220    2.0831 O.2       1 <0>        -0.2796
      6 N1         -3.3022    4.5159    1.5160 N.am      1 <0>        -0.3331
      7 N2         -4.0720    4.7026    2.6716 N.2       1 <0>         0.0136
      8 C4         -4.6460    5.8457    2.8913 C.2       1 <0>        -0.1086
      9 C5         -5.4560    6.0422    4.1073 C.ar      1 <0>        -0.0232
     10 C6         -5.6117    4.9971    5.0215 C.ar      1 <0>        -0.1098
     11 C7         -6.3650    5.1849    6.1611 C.ar      1 <0>        -0.1268
     12 C8         -6.9788    6.4064    6.3976 C.ar      1 <0>         0.0590
     13 C9         -6.8330    7.4509    5.4873 C.ar      1 <0>         0.0657
     14 C10        -6.0747    7.2722    4.3455 C.ar      1 <0>        -0.1937
     15 O2         -7.4366    8.6468    5.7223 O.3       1 <0>        -0.1983
     16 C11        -7.2441    9.6734    4.7471 C.3       1 <0>        -0.0652
     17 O3         -7.7246    6.5844    7.5200 O.3       1 <0>        -0.2763
     18 N3         -1.3427    1.7644    0.0298 N.pl3     1 <0>        -0.1846
     19 C12        -0.0170    1.4015    0.0097 C.ar      1 <0>        -0.0189
     20 C13         1.1793    2.1109    0.0021 C.ar      1 <0>        -0.1442
     21 C14         2.3684    1.4374   -0.0120 C.ar      1 <0>        -0.0855
     22 C15         2.3940    0.0486   -0.0197 C.ar      1 <0>        -0.1576
     23 C16         1.2348   -0.6704   -0.0129 C.ar      1 <0>        -0.0439
     24 C17         0.0021   -0.0041    0.0020 C.ar      1 <0>        -0.1154
     25 N4         -1.2765   -0.4307    0.0119 N.2       1 <0>        -0.0708
     26 N5         -2.0820    0.5722    0.0250 N.2       1 <0>         0.0686
     27 H2         -3.5765    2.6322   -1.1842 H         1 <0>         0.1153
     28 H3         -3.1512    4.3606   -1.1802 H         1 <0>         0.0802
     29 H4         -2.1539    3.2008   -2.0904 H         1 <0>         0.0979
     30 H5         -3.1982    5.2410    0.8802 H         1 <0>         0.2046
     31 H6         -4.5301    6.6530    2.1833 H         1 <0>         0.1141
     32 H7         -5.1386    4.0438    4.8377 H         1 <0>         0.1647
     33 H8         -6.4813    4.3776    6.8691 H         1 <0>         0.1512
     34 H9         -5.9604    8.0814    3.6395 H         1 <0>         0.1373
     35 H10        -6.1806    9.8947    4.6575 H         1 <0>         0.0681
     36 H11        -7.6274    9.3361    3.7840 H         1 <0>         0.0646
     37 H12        -7.7776   10.5724    5.0558 H         1 <0>         0.1117
     38 H13        -8.6586    6.3585    7.4116 H         1 <0>         0.2278
     39 H14         1.1685    3.1908    0.0080 H         1 <0>         0.1272
     40 H15         3.2964    1.9899   -0.0176 H         1 <0>         0.1353
     41 H16         3.3425   -0.4678   -0.0309 H         1 <0>         0.1375
     42 H17         1.2670   -1.7499   -0.0194 H         1 <0>         0.1470
@<TRIPOS>BOND
     1    1    2 1
     2    1   27 1
     3    1   28 1
     4    1   29 1
     5    2    3 1
     6    2    4 1
     7    2   18 1
     8    4    5 2
     9    4    6 am
    10    6    7 1
    11    6   30 1
    12    7    8 2
    13    8    9 1
    14    8   31 1
    15    9   14 ar
    16    9   10 ar
    17   10   11 ar
    18   10   32 1
    19   11   12 ar
    20   11   33 1
    21   12   13 ar
    22   12   17 1
    23   13   14 ar
    24   13   15 1
    25   14   34 1
    26   15   16 1
    27   16   35 1
    28   16   36 1
    29   16   37 1
    30   17   38 1
    31   18   26 1
    32   18   19 1
    33   19   24 ar
    34   19   20 ar
    35   20   21 ar
    36   20   39 1
    37   21   22 ar
    38   21   40 1
    39   22   23 ar
    40   22   41 1
    41   23   24 ar
    42   23   42 1
    43   24   25 1
    44   25   26 2
@<TRIPOS>MOLECULE
ZINC00368637
   42    44     0     0     0
SMALL
USER_CHARGES

@<TRIPOS>ATOM
      1 C1          2.1236    6.3619   -1.2682 C.3       1 <0>        -0.2267
      2 C2          1.4031    5.2867   -0.4524 C.3       1 <0>         0.0472
      3 H1          0.4237    5.0938   -0.8902 H         1 <0>         0.1210
      4 C3          1.2337    5.7626    0.9674 C.2       1 <0>         0.2917
      5 O1          1.7255    5.1335    1.8807 O.2       1 <0>        -0.2778
      6 N1          0.5359    6.8870    1.2225 N.am      1 <0>        -0.3428
      7 N2          0.3784    7.3295    2.5424 N.2       1 <0>         0.0265
      8 C4         -0.3907    8.3427    2.7999 C.2       1 <0>        -0.1142
      9 C5         -1.4448    8.7294    1.8444 C.ar      1 <0>        -0.0638
     10 C6         -1.8070    7.8608    0.8118 C.ar      1 <0>        -0.1803
     11 C7         -2.7968    8.2223   -0.0776 C.ar      1 <0>        -0.1175
     12 C8         -3.4273    9.4522    0.0433 C.ar      1 <0>         0.0549
     13 C9         -3.0673   10.3258    1.0671 C.ar      1 <0>         0.0787
     14 C10        -2.0800    9.9680    1.9659 C.ar      1 <0>        -0.1904
     15 O2         -3.6876   11.5306    1.1824 O.3       1 <0>        -0.1962
     16 C11        -3.2687   12.3758    2.2557 C.3       1 <0>        -0.0672
     17 O3         -4.3985    9.8059   -0.8396 O.3       1 <0>        -0.2731
     18 N3          2.1941    4.0536   -0.4631 N.pl3     1 <0>        -0.1847
     19 C12         1.7989    2.8269   -0.9411 C.ar      1 <0>        -0.0194
     20 C13         0.6321    2.3484   -1.5276 C.ar      1 <0>        -0.1446
     21 C14         0.5490    1.0371   -1.9035 C.ar      1 <0>        -0.0854
     22 C15         1.6207    0.1758   -1.7052 C.ar      1 <0>        -0.1577
     23 C16         2.7760    0.6204   -1.1321 C.ar      1 <0>        -0.0437
     24 C17         2.8870    1.9605   -0.7376 C.ar      1 <0>        -0.1153
     25 N4          3.8748    2.6728   -0.1600 N.2       1 <0>        -0.0710
     26 N5          3.5038    3.8924    0.0130 N.2       1 <0>         0.0700
     27 H2          2.2461    6.0177   -2.2952 H         1 <0>         0.0972
     28 H3          1.5350    7.2793   -1.2603 H         1 <0>         0.0820
     29 H4          3.1030    6.5548   -0.8304 H         1 <0>         0.1159
     30 H5          0.1426    7.3900    0.4922 H         1 <0>         0.2277
     31 H6         -0.2586    8.9024    3.7140 H         1 <0>         0.1869
     32 H7         -1.3147    6.9047    0.7126 H         1 <0>         0.1508
     33 H8         -3.0791    7.5482   -0.8728 H         1 <0>         0.1473
     34 H9         -1.8005   10.6441    2.7604 H         1 <0>         0.1454
     35 H10        -3.4369   11.8677    3.2053 H         1 <0>         0.0721
     36 H11        -2.2079   12.6018    2.1475 H         1 <0>         0.0671
     37 H12        -3.8418   13.3028    2.2332 H         1 <0>         0.1152
     38 H13        -4.0695   10.2723   -1.6202 H         1 <0>         0.2280
     39 H14        -0.2042    3.0122   -1.6895 H         1 <0>         0.1265
     40 H15        -0.3576    0.6673   -2.3591 H         1 <0>         0.1353
     41 H16         1.5383   -0.8574   -2.0084 H         1 <0>         0.1375
     42 H17         3.6026   -0.0585   -0.9826 H         1 <0>         0.1470
@<TRIPOS>BOND
     1    1    2 1
     2    1   27 1
     3    1   28 1
     4    1   29 1
     5    2    3 1
     6    2    4 1
     7    2   18 1
     8    4    5 2
     9    4    6 am
    10    6    7 1
    11    6   30 1
    12    7    8 2
    13    8    9 1
    14    8   31 1
    15    9   14 ar
    16    9   10 ar
    17   10   11 ar
    18   10   32 1
    19   11   12 ar
    20   11   33 1
    21   12   13 ar
    22   12   17 1
    23   13   14 ar
    24   13   15 1
    25   14   34 1
    26   15   16 1
    27   16   35 1
    28   16   36 1
    29   16   37 1
    30   17   38 1
    31   18   26 1
    32   18   19 1
    33   19   24 ar
    34   19   20 ar
    35   20   21 ar
    36   20   39 1
    37   21   22 ar
    38   21   40 1
    39   22   23 ar
    40   22   41 1
    41   23   24 ar
    42   23   42 1
    43   24   25 1
    44   25   26 2
@<TRIPOS>MOLECULE
ZINC00368638
   42    44     0     0     0
SMALL
USER_CHARGES

@<TRIPOS>ATOM
      1 C1          0.7783    5.3932   -1.2246 C.3       1 <0>        -0.2264
      2 C2          0.5620    4.5324    0.0217 C.3       1 <0>         0.0477
      3 H1         -0.4600    4.1534    0.0286 H         1 <0>         0.1229
      4 C3          0.7970    5.3660    1.2549 C.2       1 <0>         0.2995
      5 O1          1.6630    5.0511    2.0440 O.2       1 <0>        -0.2796
      6 N1          0.0451    6.4614    1.4812 N.am      1 <0>        -0.3331
      7 N2          0.2635    7.2364    2.6278 N.2       1 <0>         0.0137
      8 C4         -0.4606    8.2912    2.8457 C.2       1 <0>        -0.1086
      9 C5         -0.2307    9.1067    4.0522 C.ar      1 <0>        -0.0231
     10 C6          0.7624    8.7424    4.9650 C.ar      1 <0>        -0.1099
     11 C7          0.9793    9.5095    6.0901 C.ar      1 <0>        -0.1268
     12 C8          0.2061   10.6373    6.3245 C.ar      1 <0>         0.0589
     13 C9         -0.7897   11.0034    5.4216 C.ar      1 <0>         0.0658
     14 C10        -1.0092   10.2426    4.2885 C.ar      1 <0>        -0.1938
     15 O2         -1.5456   12.1096    5.6547 O.3       1 <0>        -0.1982
     16 C11        -2.5482   12.4261    4.6869 C.3       1 <0>        -0.0652
     17 O3          0.4204   11.3868    7.4381 O.3       1 <0>        -0.2761
     18 N3          1.5000    3.4072    0.0068 N.pl3     1 <0>        -0.1847
     19 C12         1.1808    2.0702    0.0019 C.ar      1 <0>        -0.0191
     20 C13        -0.0165    1.3624    0.0095 C.ar      1 <0>        -0.1443
     21 C14         0.0021   -0.0041    0.0020 C.ar      1 <0>        -0.0857
     22 C15         1.2074   -0.6944   -0.0132 C.ar      1 <0>        -0.1577
     23 C16         2.3952   -0.0237   -0.0209 C.ar      1 <0>        -0.0438
     24 C17         2.4039    1.3776   -0.0135 C.ar      1 <0>        -0.1154
     25 N4          3.3928    2.2935   -0.0173 N.2       1 <0>        -0.0708
     26 N5          2.9008    3.4821   -0.0058 N.2       1 <0>         0.0695
     27 H2          1.8003    5.7722   -1.2315 H         1 <0>         0.1156
     28 H3          0.6083    4.7903   -2.1166 H         1 <0>         0.0978
     29 H4          0.0804    6.2304   -1.2135 H         1 <0>         0.0804
     30 H5         -0.6474    6.7132    0.8503 H         1 <0>         0.2046
     31 H6         -1.2315    8.5715    2.1433 H         1 <0>         0.1141
     32 H7          1.3628    7.8624    4.7873 H         1 <0>         0.1647
     33 H8          1.7502    9.2293    6.7927 H         1 <0>         0.1512
     34 H9         -1.7804   10.5258    3.5874 H         1 <0>         0.1373
     35 H10        -2.0780   12.5916    3.7175 H         1 <0>         0.0684
     36 H11        -3.2545   11.5992    4.6117 H         1 <0>         0.0642
     37 H12        -3.0768   13.3287    4.9931 H         1 <0>         0.1117
     38 H13        -0.1013   11.1109    8.2042 H         1 <0>         0.2275
     39 H14        -0.9581    1.8912    0.0169 H         1 <0>         0.1270
     40 H15        -0.9286   -0.5520    0.0076 H         1 <0>         0.1351
     41 H16         1.2040   -1.7743   -0.0193 H         1 <0>         0.1374
     42 H17         3.3262   -0.5711   -0.0324 H         1 <0>         0.1471
@<TRIPOS>BOND
     1    1    2 1
     2    1   27 1
     3    1   28 1
     4    1   29 1
     5    2    3 1
     6    2    4 1
     7    2   18 1
     8    4    5 2
     9    4    6 am
    10    6    7 1
    11    6   30 1
    12    7    8 2
    13    8    9 1
    14    8   31 1
    15    9   14 ar
    16    9   10 ar
    17   10   11 ar
    18   10   32 1
    19   11   12 ar
    20   11   33 1
    21   12   13 ar
    22   12   17 1
    23   13   14 ar
    24   13   15 1
    25   14   34 1
    26   15   16 1
    27   16   35 1
    28   16   36 1
    29   16   37 1
    30   17   38 1
    31   18   26 1
    32   18   19 1
    33   19   24 ar
    34   19   20 ar
    35   20   21 ar
    36   20   39 1
    37   21   22 ar
    38   21   40 1
    39   22   23 ar
    40   22   41 1
    41   23   24 ar
    42   23   42 1
    43   24   25 1
    44   25   26 2
@<TRIPOS>MOLECULE
ZINC00370871
   42    43     0     0     0
SMALL
USER_CHARGES

@<TRIPOS>ATOM
      1 C1          9.8403   -0.5299   -0.0961 C.3       1 <0>        -0.1786
      2 C2          8.4149   -1.0189   -0.0846 C.2       1 <0>         0.0274
      3 C3          7.3511   -0.1292   -0.0696 C.2       1 <0>        -0.2272
      4 C4          6.0573   -0.6620   -0.0600 C.2       1 <0>        -0.1092
      5 S1          6.3426   -2.3716   -0.0643 S.3       1 <0>         0.5295
      6 C5          8.1251   -2.3561   -0.0890 C.2       1 <0>        -0.4150
      7 C6          9.0493   -3.4918   -0.1039 C.2       1 <0>         0.4030
      8 O1         10.2510   -3.2985   -0.1144 O.2       1 <0>        -0.3682
      9 N1          8.5692   -4.7512   -0.1061 N.am      1 <0>        -0.4260
     10 N2          4.8512    0.0085   -0.0449 N.am      1 <0>        -0.2619
     11 C7          3.6951   -0.6842   -0.0375 C.2       1 <0>         0.3468
     12 O2          3.7148   -1.8994   -0.0442 O.2       1 <0>        -0.3394
     13 C8          2.4036    0.0339   -0.0213 C.ar      1 <0>        -0.1335
     14 C9          1.2042   -0.6806   -0.0136 C.ar      1 <0>        -0.0593
     15 C10         0.0021   -0.0041    0.0020 C.ar      1 <0>        -0.1370
     16 C11        -0.0167    1.3794    0.0096 C.ar      1 <0>        -0.0954
     17 C12         1.1683    2.0937    0.0021 C.ar      1 <0>        -0.1339
     18 C13         2.3774    1.4297   -0.0130 C.ar      1 <0>        -0.0998
     19 C14         7.5747    1.3207   -0.0644 C.2       1 <0>         0.3640
     20 O3          7.6777    1.9163    0.9908 O.2       1 <0>        -0.3497
     21 O4          7.6659    1.9930   -1.2297 O.3       1 <0>        -0.2583
     22 C15         7.8876    3.4257   -1.1486 C.3       1 <0>         0.0285
     23 C16         8.6759    3.8900   -2.3749 C.3       1 <0>        -0.2106
     24 C17         6.5398    4.1487   -1.1049 C.3       1 <0>        -0.2315
     25 H1         10.1941   -0.4172    0.9287 H         1 <0>         0.1031
     26 H2         10.4676   -1.2512   -0.6198 H         1 <0>         0.1260
     27 H3          9.8902    0.4324   -0.6055 H         1 <0>         0.0782
     28 H4          7.6116   -4.9053   -0.0978 H         1 <0>         0.2164
     29 H5          9.1814   -5.5036   -0.1160 H         1 <0>         0.2341
     30 H6          4.8355    0.9784   -0.0395 H         1 <0>         0.2526
     31 H7          1.2174   -1.7605   -0.0202 H         1 <0>         0.1581
     32 H8         -0.9265   -0.5555    0.0080 H         1 <0>         0.1406
     33 H9         -0.9606    1.9042    0.0169 H         1 <0>         0.1366
     34 H10         1.1467    3.1735    0.0078 H         1 <0>         0.1379
     35 H11         3.3017    1.9884   -0.0193 H         1 <0>         0.1262
     36 H12         8.4525    3.6554   -0.2452 H         1 <0>         0.1122
     37 H13         8.1109    3.6604   -3.2783 H         1 <0>         0.0871
     38 H14         8.8423    4.9655   -2.3140 H         1 <0>         0.0877
     39 H15         9.6360    3.3750   -2.4060 H         1 <0>         0.0880
     40 H16         6.7063    5.2242   -1.0440 H         1 <0>         0.0888
     41 H17         5.9749    3.9190   -2.0083 H         1 <0>         0.0823
     42 H18         5.9782    3.8179   -0.2313 H         1 <0>         0.0792
@<TRIPOS>BOND
     1    1    2 1
     2    1   25 1
     3    1   26 1
     4    1   27 1
     5    2    6 2
     6    2    3 1
     7    3    4 2
     8    3   19 1
     9    4    5 1
    10    4   10 1
    11    5    6 1
    12    6    7 1
    13    7    8 2
    14    7    9 am
    15    9   28 1
    16    9   29 1
    17   10   11 am
    18   10   30 1
    19   11   12 2
    20   11   13 1
    21   13   18 ar
    22   13   14 ar
    23   14   15 ar
    24   14   31 1
    25   15   16 ar
    26   15   32 1
    27   16   17 ar
    28   16   33 1
    29   17   18 ar
    30   17   34 1
    31   18   35 1
    32   19   20 2
    33   19   21 1
    34   21   22 1
    35   22   23 1
    36   22   24 1
    37   22   36 1
    38   23   37 1
    39   23   38 1
    40   23   39 1
    41   24   40 1
    42   24   41 1
    43   24   42 1
@<TRIPOS>MOLECULE
ZINC00371036
   43    44     0     0     0
SMALL
USER_CHARGES

@<TRIPOS>ATOM
      1 C1          1.9339   -2.6870   -1.2796 C.3       1 <0>        -0.2041
      2 C2          1.2206   -2.1895   -0.0209 C.3       1 <0>        -0.0824
      3 C3          1.9582   -2.6996    1.2187 C.3       1 <0>        -0.2041
      4 C4          1.2078   -0.6825   -0.0131 C.ar      1 <0>        -0.0426
      5 C5          0.0021   -0.0041    0.0020 C.ar      1 <0>        -0.1378
      6 C6         -0.0166    1.3754    0.0096 C.ar      1 <0>        -0.0628
      7 C7          1.1843    2.0865    0.0020 C.ar      1 <0>        -0.1350
      8 C8          2.3972    1.3959   -0.0129 C.ar      1 <0>        -0.1025
      9 C9          2.4019    0.0164   -0.0208 C.ar      1 <0>        -0.1339
     10 C10         1.1718    3.5649    0.0095 C.2       1 <0>         0.3488
     11 O1          0.1141    4.1637    0.0224 O.2       1 <0>        -0.3696
     12 N1          2.3332    4.2487    0.0021 N.am      1 <0>        -0.3893
     13 C11         2.3208    5.7136    0.0096 C.3       1 <0>         0.0288
     14 C12         3.7372    6.2281   -0.0010 C.ar      1 <0>        -0.0534
     15 C13         4.3961    6.4633    1.1912 C.ar      1 <0>        -0.1376
     16 C14         5.6969    6.9310    1.1814 C.ar      1 <0>        -0.0287
     17 C15         6.3357    7.1721   -0.0206 C.ar      1 <0>        -0.7569
     18 C16         5.6750    6.9419   -1.2128 C.ar      1 <0>        -0.0287
     19 C17         4.3757    6.4700   -1.2030 C.ar      1 <0>        -0.1377
     20 S1          7.9922    7.7725   -0.0331 S.o2      1 <0>         2.7612
     21 O2          8.5730    7.3875    1.2054 O.2       1 <0>        -0.9153
     22 O3          8.5503    7.3983   -1.2852 O.2       1 <0>        -0.9153
     23 N2          7.9136    9.4266   -0.0252 N.pl3     1 <0>        -0.9305
     24 H1          2.9584   -2.3149   -1.2877 H         1 <0>         0.0759
     25 H2          1.9432   -3.7769   -1.2852 H         1 <0>         0.0770
     26 H3          1.4084   -2.3236   -2.1627 H         1 <0>         0.0795
     27 H4          0.1961   -2.5615   -0.0128 H         1 <0>         0.0967
     28 H5          1.4500   -2.3451    2.1155 H         1 <0>         0.0795
     29 H6          1.9675   -3.7895    1.2131 H         1 <0>         0.0770
     30 H7          2.9827   -2.3275    1.2106 H         1 <0>         0.0759
     31 H8         -0.9265   -0.5556    0.0083 H         1 <0>         0.1370
     32 H9         -0.9585    1.9038    0.0169 H         1 <0>         0.1566
     33 H10         3.3299    1.9403   -0.0189 H         1 <0>         0.1249
     34 H11         3.3396   -0.5192   -0.0326 H         1 <0>         0.1359
     35 H12         3.1773    3.7709   -0.0082 H         1 <0>         0.2289
     36 H13         1.7956    6.0771   -0.8737 H         1 <0>         0.1038
     37 H14         1.8122    6.0681    0.9062 H         1 <0>         0.1038
     38 H15         3.8958    6.2785    2.1303 H         1 <0>         0.1446
     39 H16         6.2132    7.1106    2.1128 H         1 <0>         0.1562
     40 H17         6.1740    7.1302   -2.1519 H         1 <0>         0.1561
     41 H18         3.8595    6.2901   -2.1345 H         1 <0>         0.1446
     42 H19         7.0515    9.8711   -0.0154 H         1 <0>         0.2305
     43 H20         8.7297    9.9509   -0.0303 H         1 <0>         0.2451
@<TRIPOS>BOND
     1    1    2 1
     2    1   24 1
     3    1   25 1
     4    1   26 1
     5    2    3 1
     6    2    4 1
     7    2   27 1
     8    3   28 1
     9    3   29 1
    10    3   30 1
    11    4    9 ar
    12    4    5 ar
    13    5    6 ar
    14    5   31 1
    15    6    7 ar
    16    6   32 1
    17    7    8 ar
    18    7   10 1
    19    8    9 ar
    20    8   33 1
    21    9   34 1
    22   10   11 2
    23   10   12 am
    24   12   13 1
    25   12   35 1
    26   13   14 1
    27   13   36 1
    28   13   37 1
    29   14   19 ar
    30   14   15 ar
    31   15   16 ar
    32   15   38 1
    33   16   17 ar
    34   16   39 1
    35   17   18 ar
    36   17   20 1
    37   18   19 ar
    38   18   40 1
    39   19   41 1
    40   20   21 2
    41   20   22 2
    42   20   23 1
    43   23   42 1
    44   23   43 1
@<TRIPOS>MOLECULE
ZINC00371350
   42    43     0     0     0
SMALL
USER_CHARGES

@<TRIPOS>ATOM
      1 C1          4.6647   -9.1767   -3.6688 C.3       1 <0>        -0.1700
      2 C2          4.4215   -7.9794   -2.7865 C.ar      1 <0>        -0.1185
      3 C3          3.1299   -7.5411   -2.5582 C.ar      1 <0>        -0.0497
      4 C4          2.9040   -6.4475   -1.7453 C.ar      1 <0>        -0.2367
      5 C5          3.9750   -5.7823   -1.1658 C.ar      1 <0>         0.1462
      6 C6          5.2695   -6.2239   -1.3964 C.ar      1 <0>        -0.1358
      7 C7          5.4899   -7.3213   -2.2064 C.ar      1 <0>        -0.0357
      8 N1          6.4138   -5.5198   -0.7756 N.pl3     1 <0>         0.5513
      9 O1          7.5504   -5.9079   -0.9784 O.2       1 <0>        -0.3734
     10 O2          6.2190   -4.5522   -0.0619 O.3       1 <0>        -0.3137
     11 O3          3.7556   -4.7035   -0.3690 O.3       1 <0>        -0.1379
     12 C8          2.4098   -4.2331   -0.2700 C.3       1 <0>         0.0026
     13 H1          1.9075   -4.3646   -1.2284 H         1 <0>         0.1033
     14 C9          1.6696   -5.0283    0.8072 C.3       1 <0>        -0.2431
     15 C10         2.4143   -2.7718    0.0984 C.2       1 <0>         0.2975
     16 O4          3.4663   -2.1904    0.2602 O.2       1 <0>        -0.2912
     17 N2          1.2493   -2.1110    0.2480 N.am      1 <0>        -0.3299
     18 C11         1.2525   -0.7368    0.4849 C.ar      1 <0>         0.0868
     19 C12         2.2386    0.0632   -0.0838 C.ar      1 <0>        -0.1392
     20 C13         2.2447    1.4202    0.1480 C.ar      1 <0>        -0.0443
     21 C14         1.2591    1.9940    0.9556 C.ar      1 <0>        -0.1470
     22 C15         0.2704    1.1874    1.5257 C.ar      1 <0>        -0.0864
     23 C16         0.2700   -0.1689    1.2898 C.ar      1 <0>        -0.1732
     24 C17         1.2628    3.4484    1.2068 C.2       1 <0>         0.3510
     25 O5          2.1241    4.1487    0.7108 O.2       1 <0>        -0.3667
     26 N3          0.3115    4.0002    1.9859 N.am      1 <0>        -0.4299
     27 H2          4.6585  -10.0822   -3.0622 H         1 <0>         0.0916
     28 H3          3.8792   -9.2385   -4.4220 H         1 <0>         0.0852
     29 H4          5.6323   -9.0752   -4.1603 H         1 <0>         0.0905
     30 H5          2.2969   -8.0569   -3.0125 H         1 <0>         0.1421
     31 H6          1.8949   -6.1083   -1.5638 H         1 <0>         0.1474
     32 H7          6.4977   -7.6655   -2.3863 H         1 <0>         0.1722
     33 H8          1.6663   -6.0853    0.5408 H         1 <0>         0.0936
     34 H9          2.1719   -4.8968    1.7656 H         1 <0>         0.1137
     35 H10         0.6431   -4.6695    0.8828 H         1 <0>         0.0811
     36 H11         0.4084   -2.5913    0.1910 H         1 <0>         0.2309
     37 H12         2.9998   -0.3808   -0.7081 H         1 <0>         0.1677
     38 H13         3.0130    2.0400   -0.2901 H         1 <0>         0.1649
     39 H14        -0.4928    1.6277    2.1503 H         1 <0>         0.1263
     40 H15        -0.4940   -0.7927    1.7298 H         1 <0>         0.1308
     41 H16        -0.3756    3.4415    2.3816 H         1 <0>         0.2141
     42 H17         0.3140    4.9560    2.1509 H         1 <0>         0.2315
@<TRIPOS>BOND
     1    1    2 1
     2    1   27 1
     3    1   28 1
     4    1   29 1
     5    2    7 ar
     6    2    3 ar
     7    3    4 ar
     8    3   30 1
     9    4    5 ar
    10    4   31 1
    11    5    6 ar
    12    5   11 1
    13    6    7 ar
    14    6    8 1
    15    7   32 1
    16    8    9 2
    17    8   10 1
    18   11   12 1
    19   12   13 1
    20   12   14 1
    21   12   15 1
    22   14   33 1
    23   14   34 1
    24   14   35 1
    25   15   16 2
    26   15   17 am
    27   17   18 1
    28   17   36 1
    29   18   23 ar
    30   18   19 ar
    31   19   20 ar
    32   19   37 1
    33   20   21 ar
    34   20   38 1
    35   21   22 ar
    36   21   24 1
    37   22   23 ar
    38   22   39 1
    39   23   40 1
    40   24   25 2
    41   24   26 am
    42   26   41 1
    43   26   42 1
@<TRIPOS>MOLECULE
ZINC00371351
   42    43     0     0     0
SMALL
USER_CHARGES

@<TRIPOS>ATOM
      1 C1          0.1319   -4.2753    0.1262 C.3       1 <0>        -0.1700
      2 C2          0.0856   -2.7693    0.0941 C.ar      1 <0>        -0.1189
      3 C3          1.2567   -2.0454   -0.0365 C.ar      1 <0>        -0.0486
      4 C4          1.2164   -0.6652   -0.0719 C.ar      1 <0>        -0.2369
      5 C5          0.0007   -0.0049    0.0337 C.ar      1 <0>         0.1470
      6 C6         -1.1725   -0.7333    0.1646 C.ar      1 <0>        -0.1369
      7 C7         -1.1274   -2.1139    0.1947 C.ar      1 <0>        -0.0354
      8 N1         -2.4715   -0.0322    0.2723 N.pl3     1 <0>         0.5519
      9 O1         -3.5013   -0.6723    0.3872 O.2       1 <0>        -0.3733
     10 O2         -2.5107    1.1849    0.2461 O.3       1 <0>        -0.3162
     11 O3         -0.0412    1.3532    0.0033 O.3       1 <0>        -0.1379
     12 C8          1.2112    2.0400   -0.0408 C.3       1 <0>         0.0014
     13 H1          1.9164    1.4710   -0.6466 H         1 <0>         0.0996
     14 C9          1.7620    2.1880    1.3789 C.3       1 <0>        -0.2396
     15 C10         1.0144    3.4051   -0.6481 C.2       1 <0>         0.2998
     16 O4         -0.1018    3.7908   -0.9241 O.2       1 <0>        -0.2984
     17 N2          2.0788    4.1973   -0.8845 N.am      1 <0>        -0.3286
     18 C11         1.8906    5.4930   -1.3642 C.ar      1 <0>         0.0830
     19 C12         0.8573    5.7594   -2.2570 C.ar      1 <0>        -0.1363
     20 C13         0.6658    7.0385   -2.7288 C.ar      1 <0>        -0.0861
     21 C14         1.5173    8.0677   -2.3183 C.ar      1 <0>        -0.1458
     22 C15         2.5576    7.7956   -1.4257 C.ar      1 <0>        -0.0483
     23 C16         2.7403    6.5154   -0.9536 C.ar      1 <0>        -0.1735
     24 C17         1.3182    9.4392   -2.8262 C.2       1 <0>         0.3516
     25 O5          2.0596   10.3337   -2.4679 O.2       1 <0>        -0.3721
     26 N3          0.3145    9.6999   -3.6870 N.am      1 <0>        -0.4277
     27 H2          0.0448   -4.6632   -0.8887 H         1 <0>         0.0922
     28 H3          1.0776   -4.6006    0.5596 H         1 <0>         0.0851
     29 H4         -0.6934   -4.6513    0.7310 H         1 <0>         0.0901
     30 H5          2.2031   -2.5598   -0.1149 H         1 <0>         0.1424
     31 H6          2.1308   -0.1004   -0.1784 H         1 <0>         0.1475
     32 H7         -2.0405   -2.6815    0.2966 H         1 <0>         0.1720
     33 H8          1.9043    1.2006    1.8182 H         1 <0>         0.0928
     34 H9          2.7172    2.7118    1.3453 H         1 <0>         0.0841
     35 H10         1.0567    2.7569    1.9848 H         1 <0>         0.1148
     36 H11         2.9757    3.8662   -0.7209 H         1 <0>         0.2317
     37 H12         0.2021    4.9627   -2.5769 H         1 <0>         0.1694
     38 H13        -0.1391    7.2454   -3.4185 H         1 <0>         0.1312
     39 H14         3.2172    8.5889   -1.1063 H         1 <0>         0.1602
     40 H15         3.5438    6.3045   -0.2634 H         1 <0>         0.1342
     41 H16        -0.2770    8.9863   -3.9728 H         1 <0>         0.2169
     42 H17         0.1836   10.6013   -4.0207 H         1 <0>         0.2316
@<TRIPOS>BOND
     1    1    2 1
     2    1   27 1
     3    1   28 1
     4    1   29 1
     5    2    7 ar
     6    2    3 ar
     7    3    4 ar
     8    3   30 1
     9    4    5 ar
    10    4   31 1
    11    5    6 ar
    12    5   11 1
    13    6    7 ar
    14    6    8 1
    15    7   32 1
    16    8    9 2
    17    8   10 1
    18   11   12 1
    19   12   13 1
    20   12   14 1
    21   12   15 1
    22   14   33 1
    23   14   34 1
    24   14   35 1
    25   15   16 2
    26   15   17 am
    27   17   18 1
    28   17   36 1
    29   18   23 ar
    30   18   19 ar
    31   19   20 ar
    32   19   37 1
    33   20   21 ar
    34   20   38 1
    35   21   22 ar
    36   21   24 1
    37   22   23 ar
    38   22   39 1
    39   23   40 1
    40   24   25 2
    41   24   26 am
    42   26   41 1
    43   26   42 1
@<TRIPOS>MOLECULE
ZINC00377620
   43    46     0     0     0
SMALL
USER_CHARGES

@<TRIPOS>ATOM
      1 C1         -1.4675    6.2748    2.9913 C.3       1 <0>        -0.2298
      2 C2         -1.5266    4.7492    3.0905 C.3       1 <0>        -0.1156
      3 C3         -2.8495    4.2620    2.5580 C.2       1 <0>         0.0227
      4 C4         -3.1425    4.0145    1.2728 C.2       1 <0>        -0.2618
      5 C5         -4.4859    3.5778    1.2059 C.2       1 <0>         0.0827
      6 N1         -4.9659    3.5672    2.4150 N.2       1 <0>        -0.0618
      7 N2         -3.9554    3.9950    3.2906 N.pl3     1 <0>        -0.1840
      8 H1         -4.0384    4.0865    4.2829 H         1 <0>         0.2924
      9 O1         -5.0774    3.2510    0.0259 O.3       1 <0>        -0.1060
     10 C6         -4.4457    3.6022   -1.1117 C.2       1 <0>         0.2886
     11 C7         -3.1623    4.0220   -1.1741 C.2       1 <0>        -0.2537
     12 C8         -2.2877    4.1405    0.0431 C.3       1 <0>         0.1197
     13 C9         -1.1972    3.1180    0.0297 C.ar      1 <0>        -0.1280
     14 C10        -1.2343    1.7402    0.0174 C.ar      1 <0>        -0.0559
     15 C11        -0.0126    1.0758    0.0080 C.ar      1 <0>        -0.1619
     16 C12         1.1814    1.7679    0.0003 C.ar      1 <0>        -0.0946
     17 C13         1.2271    3.1531    0.0073 C.ar      1 <0>        -0.1617
     18 C14         0.0077    3.8321    0.0219 C.ar      1 <0>         0.0653
     19 N3         -0.2401    5.1935    0.0300 N.am      1 <0>        -0.2736
     20 C15        -1.5617    5.4675    0.0416 C.2       1 <0>         0.3310
     21 O2         -2.0705    6.5685    0.0497 O.2       1 <0>        -0.3124
     22 C16         0.8084    6.2167    0.0257 C.3       1 <0>         0.0200
     23 C17         1.1559    6.5738   -1.3965 C.2       1 <0>        -0.2009
     24 C18         1.0989    7.8216   -1.7911 C.2       1 <0>        -0.1888
     25 C19        -2.6137    4.3677   -2.4508 C.1       1 <0>        -0.0628
     26 N4         -2.1784    4.6419   -3.4637 N.1       1 <0>        -0.0717
     27 N5         -5.1532    3.5293   -2.2856 N.pl3     1 <0>        -0.3833
     28 H2         -1.5726    6.5755    1.9489 H         1 <0>         0.1146
     29 H3         -2.2773    6.7086    3.5780 H         1 <0>         0.0788
     30 H4         -0.5107    6.6272    3.3764 H         1 <0>         0.0769
     31 H5         -1.4215    4.4485    4.1329 H         1 <0>         0.0871
     32 H6         -0.7168    4.3153    2.5038 H         1 <0>         0.1149
     33 H7         -2.1700    1.2009    0.0194 H         1 <0>         0.1437
     34 H8          0.0021   -0.0041    0.0020 H         1 <0>         0.1315
     35 H9          2.1080    1.2133   -0.0112 H         1 <0>         0.1303
     36 H10         2.1671    3.6850    0.0020 H         1 <0>         0.1388
     37 H11         0.4512    7.1051    0.5465 H         1 <0>         0.1114
     38 H12         1.6943    5.8312    0.5304 H         1 <0>         0.0959
     39 H13         1.4521    5.8010   -2.0904 H         1 <0>         0.1354
     40 H14         0.8028    8.5945   -1.0973 H         1 <0>         0.1144
     41 H15         1.3479    8.0776   -2.8104 H         1 <0>         0.1190
     42 H16        -6.0767    3.2325   -2.2777 H         1 <0>         0.2321
     43 H17        -4.7298    3.7746   -3.1232 H         1 <0>         0.2612
@<TRIPOS>BOND
     1    1    2 1
     2    1   28 1
     3    1   29 1
     4    1   30 1
     5    2    3 1
     6    2   31 1
     7    2   32 1
     8    3    7 1
     9    3    4 2
    10    4   12 1
    11    4    5 1
    12    5    6 2
    13    5    9 1
    14    6    7 1
    15    7    8 1
    16    9   10 1
    17   10   11 2
    18   10   27 1
    19   11   12 1
    20   11   25 1
    21   12   20 1
    22   12   13 1
    23   13   18 ar
    24   13   14 ar
    25   14   15 ar
    26   14   33 1
    27   15   16 ar
    28   15   34 1
    29   16   17 ar
    30   16   35 1
    31   17   18 ar
    32   17   36 1
    33   18   19 1
    34   19   20 am
    35   19   22 1
    36   20   21 2
    37   22   23 1
    38   22   37 1
    39   22   38 1
    40   23   24 2
    41   23   39 1
    42   24   40 1
    43   24   41 1
    44   25   26 3
    45   27   42 1
    46   27   43 1
@<TRIPOS>MOLECULE
ZINC00379784
   43    44     0     0     0
SMALL
USER_CHARGES

@<TRIPOS>ATOM
      1 C1          5.2356    3.0537   -2.2053 C.3       1 <0>        -0.1765
      2 C2          3.8950    2.6202   -1.6704 C.ar      1 <0>        -0.0793
      3 C3          3.1862    1.6212   -2.3125 C.ar      1 <0>        -0.1087
      4 C4          1.9602    1.2176   -1.8218 C.ar      1 <0>        -0.1330
      5 C5          1.4339    1.8240   -0.6880 C.ar      1 <0>         0.0688
      6 C6          2.1484    2.8269   -0.0456 C.ar      1 <0>        -0.1423
      7 C7          3.3767    3.2218   -0.5385 C.ar      1 <0>        -0.0529
      8 C8          4.1527    4.3099    0.1579 C.3       1 <0>        -0.1773
      9 N1          0.1916    1.4219   -0.1919 N.pl3     1 <0>        -0.7733
     10 C9         -0.0270    0.0247    0.1905 C.3       1 <0>         0.0254
     11 C10         0.4493   -0.1896    1.6041 C.ar      1 <0>        -0.0920
     12 C11         1.7838   -0.4617    1.8475 C.ar      1 <0>        -0.1154
     13 C12         2.2272   -0.6542    3.1396 C.ar      1 <0>        -0.1061
     14 C13         1.3242   -0.5844    4.2016 C.ar      1 <0>        -0.1242
     15 C14        -0.0217   -0.3148    3.9487 C.ar      1 <0>        -0.0662
     16 C15        -0.4510   -0.1191    2.6524 C.ar      1 <0>        -0.1403
     17 C16         1.7915   -0.7946    5.5885 C.2       1 <0>         0.3481
     18 O1          1.0029   -0.7329    6.5114 O.2       1 <0>        -0.3655
     19 N2          3.0918   -1.0548    5.8293 N.am      1 <0>        -0.4276
     20 S1         -1.0361    2.5231   -0.0425 S.o2      1 <0>         2.6811
     21 O2         -0.7310    3.5371   -0.9901 O.2       1 <0>        -0.8898
     22 O3         -2.2269    1.7566   -0.1597 O.2       1 <0>        -0.9094
     23 C17        -0.8756    3.1743    1.6429 C.3       1 <0>        -0.8300
     24 H1          6.0211    2.4525   -1.7474 H         1 <0>         0.0847
     25 H2          5.2569    2.9169   -3.2864 H         1 <0>         0.0834
     26 H3          5.3984    4.1052   -1.9688 H         1 <0>         0.0871
     27 H4          3.5941    1.1531   -3.1962 H         1 <0>         0.1346
     28 H5          1.4092    0.4344   -2.3211 H         1 <0>         0.1371
     29 H6          1.7441    3.2972    0.8386 H         1 <0>         0.1276
     30 H7          4.8021    3.8669    0.9128 H         1 <0>         0.0853
     31 H8          4.7580    4.8482   -0.5715 H         1 <0>         0.0894
     32 H9          3.4592    5.0018    0.6359 H         1 <0>         0.0838
     33 H10        -1.0900   -0.2076    0.1261 H         1 <0>         0.1292
     34 H11         0.5289   -0.6276   -0.4830 H         1 <0>         0.1077
     35 H12         2.4807   -0.5195    1.0244 H         1 <0>         0.1407
     36 H13         3.2700   -0.8624    3.3286 H         1 <0>         0.1271
     37 H14        -0.7253   -0.2591    4.7661 H         1 <0>         0.1607
     38 H15        -1.4921    0.0899    2.4553 H         1 <0>         0.1424
     39 H16         3.7211   -1.1041    5.0928 H         1 <0>         0.2160
     40 H17         3.3983   -1.1928    6.7392 H         1 <0>         0.2329
     41 H18         0.1462    3.5180    1.8039 H         1 <0>         0.1362
     42 H19        -1.5648    4.0080    1.7775 H         1 <0>         0.1408
     43 H20        -1.1118    2.3883    2.3602 H         1 <0>         0.1393
@<TRIPOS>BOND
     1    1    2 1
     2    1   24 1
     3    1   25 1
     4    1   26 1
     5    2    7 ar
     6    2    3 ar
     7    3    4 ar
     8    3   27 1
     9    4    5 ar
    10    4   28 1
    11    5    6 ar
    12    5    9 1
    13    6    7 ar
    14    6   29 1
    15    7    8 1
    16    8   30 1
    17    8   31 1
    18    8   32 1
    19    9   10 1
    20    9   20 1
    21   10   11 1
    22   10   33 1
    23   10   34 1
    24   11   16 ar
    25   11   12 ar
    26   12   13 ar
    27   12   35 1
    28   13   14 ar
    29   13   36 1
    30   14   15 ar
    31   14   17 1
    32   15   16 ar
    33   15   37 1
    34   16   38 1
    35   17   18 2
    36   17   19 am
    37   19   39 1
    38   19   40 1
    39   20   21 2
    40   20   22 2
    41   20   23 1
    42   23   41 1
    43   23   42 1
    44   23   43 1
@<TRIPOS>MOLECULE
ZINC00381188
   41    42     0     0     0
SMALL
USER_CHARGES

@<TRIPOS>ATOM
      1 C1        -11.0489   10.2354   -0.6084 C.3       1 <0>        -0.2409
      2 C2         -9.7676    9.4459   -0.5303 C.2       1 <0>         0.3020
      3 O1         -9.6917    8.3589   -1.0628 O.2       1 <0>        -0.3520
      4 N1         -8.7061    9.9477    0.1314 N.am      1 <0>        -0.3299
      5 C3         -7.4917    9.2623    0.1232 C.ar      1 <0>         0.0855
      6 C4         -6.2946    9.9713    0.1113 C.ar      1 <0>        -0.1743
      7 C5         -5.0939    9.2979    0.1041 C.ar      1 <0>        -0.0460
      8 C6         -5.0784    7.9002    0.1083 C.ar      1 <0>        -0.1471
      9 C7         -6.2829    7.1912    0.1140 C.ar      1 <0>        -0.0903
     10 C8         -7.4799    7.8710    0.1275 C.ar      1 <0>        -0.1378
     11 C9         -3.7935    7.1750    0.1007 C.2       1 <0>         0.3655
     12 O2         -2.7462    7.7934    0.0907 O.2       1 <0>        -0.3210
     13 N2         -3.7802    5.8273    0.1048 N.am      1 <0>        -0.3318
     14 N3         -2.5602    5.1387    0.0975 N.2       1 <0>         0.0367
     15 C10        -2.5474    3.8407    0.1015 C.2       1 <0>        -0.1227
     16 C11        -1.2640    3.1163    0.0939 C.ar      1 <0>        -0.0390
     17 C12        -1.2464    1.7186    0.0928 C.ar      1 <0>        -0.1372
     18 C13        -0.0437    1.0446    0.0905 C.ar      1 <0>        -0.1062
     19 C14         1.1502    1.7455    0.0791 C.ar      1 <0>        -0.2017
     20 C15         1.1480    3.1314    0.0752 C.ar      1 <0>         0.0645
     21 C16        -0.0566    3.8246    0.0823 C.ar      1 <0>         0.0828
     22 O3         -0.0623    5.1837    0.0786 O.3       1 <0>        -0.2499
     23 O4          2.3248    3.8132    0.0640 O.3       1 <0>        -0.1959
     24 C17         3.5244    3.0367    0.0567 C.3       1 <0>        -0.0650
     25 H1        -10.8586   11.1891   -1.1007 H         1 <0>         0.0987
     26 H2        -11.7880    9.6731   -1.1790 H         1 <0>         0.1208
     27 H3        -11.4269   10.4151    0.3981 H         1 <0>         0.0963
     28 H4         -8.7869   10.7857    0.6133 H         1 <0>         0.2350
     29 H5         -6.3074   11.0512    0.1080 H         1 <0>         0.1362
     30 H6         -4.1651    9.8488    0.0955 H         1 <0>         0.1609
     31 H7         -6.2745    6.1112    0.1125 H         1 <0>         0.1268
     32 H8         -8.4109    7.3238    0.1371 H         1 <0>         0.1687
     33 H9         -4.6155    5.3342    0.1128 H         1 <0>         0.2074
     34 H10        -3.4774    3.2915    0.1104 H         1 <0>         0.1162
     35 H11        -2.1747    1.1667    0.0975 H         1 <0>         0.1325
     36 H12        -0.0329   -0.0353    0.0930 H         1 <0>         0.1330
     37 H13         2.0878    1.2096    0.0735 H         1 <0>         0.1378
     38 H14        -0.0706    5.5745   -0.8059 H         1 <0>         0.2375
     39 H15         3.5432    2.4054   -0.8317 H         1 <0>         0.0648
     40 H16         4.3878    3.7019    0.0481 H         1 <0>         0.1109
     41 H17         3.5572    2.4104    0.9482 H         1 <0>         0.0684
@<TRIPOS>BOND
     1    1    2 1
     2    1   25 1
     3    1   26 1
     4    1   27 1
     5    2    3 2
     6    2    4 am
     7    4    5 1
     8    4   28 1
     9    5   10 ar
    10    5    6 ar
    11    6    7 ar
    12    6   29 1
    13    7    8 ar
    14    7   30 1
    15    8    9 ar
    16    8   11 1
    17    9   10 ar
    18    9   31 1
    19   10   32 1
    20   11   12 2
    21   11   13 am
    22   13   14 1
    23   13   33 1
    24   14   15 2
    25   15   16 1
    26   15   34 1
    27   16   21 ar
    28   16   17 ar
    29   17   18 ar
    30   17   35 1
    31   18   19 ar
    32   18   36 1
    33   19   20 ar
    34   19   37 1
    35   20   21 ar
    36   20   23 1
    37   21   22 1
    38   22   38 1
    39   23   24 1
    40   24   39 1
    41   24   40 1
    42   24   41 1
@<TRIPOS>MOLECULE
ZINC00384991
   43    45     0     0     0
SMALL
USER_CHARGES

@<TRIPOS>ATOM
      1 C1          4.3721    7.6553    0.4690 C.3       1 <0>        -0.2102
      2 C2          4.4309    6.7217   -0.7417 C.3       1 <0>        -0.0891
      3 C3          3.8153    5.3939   -0.3826 C.2       1 <0>         0.0054
      4 C4          4.5028    4.2819    0.1594 C.2       1 <0>        -0.3761
      5 C5          3.5622    3.2715    0.3441 C.2       1 <0>         0.2174
      6 N1          2.3673    3.7602   -0.0784 N.pl3     1 <0>        -0.1240
      7 N2          2.5597    5.0745   -0.5178 N.2       1 <0>        -0.0903
      8 C6          1.1543    3.0714   -0.0700 C.ar      1 <0>         0.2267
      9 C7         -0.0501    3.7644   -0.0149 C.ar      1 <0>        -0.2532
     10 C8         -1.2322    3.0320   -0.0092 C.ar      1 <0>         0.2045
     11 N3         -1.1695    1.7047   -0.0614 N.ar      1 <0>        -0.2883
     12 C9         -0.0083    1.0840   -0.1079 C.ar      1 <0>         0.0822
     13 N4          1.1329    1.7422   -0.1150 N.ar      1 <0>        -0.2991
     14 O1         -2.4311    3.6620    0.0436 O.3       1 <0>        -0.1292
     15 C10        -3.5550    2.9042   -0.0542 C.ar      1 <0>         0.0479
     16 C11        -4.2708    2.8732   -1.2424 C.ar      1 <0>        -0.1169
     17 C12        -5.4095    2.0972   -1.3412 C.ar      1 <0>        -0.1212
     18 C13        -5.8427    1.3616   -0.2535 C.ar      1 <0>        -0.0684
     19 C14        -5.1343    1.3953    0.9334 C.ar      1 <0>        -0.1206
     20 C15        -3.9916    2.1648    1.0355 C.ar      1 <0>        -0.1134
     21 C16        -7.0890    0.5212   -0.3621 C.3       1 <0>        -0.1759
     22 N5          3.7993    2.0133    0.8562 N.pl3     1 <0>        -0.3796
     23 C17         5.9348    4.2091    0.4726 C.2       1 <0>         0.3869
     24 O2          6.3336    4.5328    1.5757 O.2       1 <0>        -0.3653
     25 N6          6.8082    3.7837   -0.4616 N.am      1 <0>        -0.4295
     26 H1          3.3330    7.8041    0.7629 H         1 <0>         0.0826
     27 H2          4.9239    7.2111    1.2975 H         1 <0>         0.0957
     28 H3          4.8174    8.6157    0.2093 H         1 <0>         0.0755
     29 H4          5.4699    6.5728   -1.0356 H         1 <0>         0.0959
     30 H5          3.8791    7.1659   -1.5702 H         1 <0>         0.0983
     31 H6         -0.0670    4.8436    0.0222 H         1 <0>         0.1839
     32 H7          0.0084    0.0048   -0.1457 H         1 <0>         0.2021
     33 H8         -3.9355    3.4513   -2.0907 H         1 <0>         0.1419
     34 H9         -5.9642    2.0686   -2.2674 H         1 <0>         0.1362
     35 H10        -5.4748    0.8198    1.7815 H         1 <0>         0.1354
     36 H11        -3.4384    2.1905    1.9627 H         1 <0>         0.1410
     37 H12        -7.9550    1.1167   -0.0734 H         1 <0>         0.0886
     38 H13        -7.2089    0.1804   -1.3905 H         1 <0>         0.0834
     39 H14        -7.0043   -0.3413    0.2990 H         1 <0>         0.0834
     40 H15         3.0702    1.3793    0.9418 H         1 <0>         0.2479
     41 H16         4.6951    1.7624    1.1307 H         1 <0>         0.2437
     42 H17         6.4903    3.5256   -1.3410 H         1 <0>         0.2187
     43 H18         7.7546    3.7355   -0.2546 H         1 <0>         0.2252
@<TRIPOS>BOND
     1    1    2 1
     2    1   26 1
     3    1   27 1
     4    1   28 1
     5    2    3 1
     6    2   29 1
     7    2   30 1
     8    3    7 2
     9    3    4 1
    10    4    5 2
    11    4   23 1
    12    5    6 1
    13    5   22 1
    14    6    7 1
    15    6    8 1
    16    8   13 ar
    17    8    9 ar
    18    9   10 ar
    19    9   31 1
    20   10   11 ar
    21   10   14 1
    22   11   12 ar
    23   12   13 ar
    24   12   32 1
    25   14   15 1
    26   15   20 ar
    27   15   16 ar
    28   16   17 ar
    29   16   33 1
    30   17   18 ar
    31   17   34 1
    32   18   19 ar
    33   18   21 1
    34   19   20 ar
    35   19   35 1
    36   20   36 1
    37   21   37 1
    38   21   38 1
    39   21   39 1
    40   22   40 1
    41   22   41 1
    42   23   24 2
    43   23   25 am
    44   25   42 1
    45   25   43 1
@<TRIPOS>MOLECULE
ZINC00384992
   40    42     0     0     0
SMALL
USER_CHARGES

@<TRIPOS>ATOM
      1 C1         -7.0899    0.5222   -0.3617 C.3       1 <0>        -0.1759
      2 C2         -5.8436    1.3625   -0.2532 C.ar      1 <0>        -0.0683
      3 C3         -5.1348    1.3957    0.9336 C.ar      1 <0>        -0.1207
      4 C4         -3.9918    2.1648    1.0355 C.ar      1 <0>        -0.1134
      5 C5         -3.5552    2.9042   -0.0542 C.ar      1 <0>         0.0479
      6 C6         -4.2711    2.8732   -1.2423 C.ar      1 <0>        -0.1169
      7 C7         -5.4105    2.0984   -1.3407 C.ar      1 <0>        -0.1212
      8 O1         -2.4313    3.6619    0.0437 O.3       1 <0>        -0.1291
      9 C8         -1.2324    3.0318   -0.0092 C.ar      1 <0>         0.2047
     10 C9         -0.0499    3.7644   -0.0149 C.ar      1 <0>        -0.2530
     11 C10         1.1541    3.0715   -0.0700 C.ar      1 <0>         0.2264
     12 N1          1.1327    1.7421   -0.1151 N.ar      1 <0>        -0.2990
     13 C11        -0.0083    1.0840   -0.1079 C.ar      1 <0>         0.0822
     14 N2         -1.1698    1.7049   -0.0614 N.ar      1 <0>        -0.2884
     15 N3          2.3671    3.7603   -0.0784 N.pl3     1 <0>        -0.1237
     16 C12         3.5620    3.2715    0.3440 C.2       1 <0>         0.2182
     17 C13         4.5029    4.2814    0.1581 C.2       1 <0>        -0.3772
     18 C14         3.8153    5.3937   -0.3834 C.2       1 <0>         0.0038
     19 N4          2.5596    5.0746   -0.5178 N.2       1 <0>        -0.0923
     20 C15         4.4313    6.7210   -0.7435 C.3       1 <0>        -0.1406
     21 C16         5.9350    4.2084    0.4708 C.2       1 <0>         0.3861
     22 O2          6.3343    4.5322    1.5737 O.2       1 <0>        -0.3639
     23 N5          6.8079    3.7826   -0.4637 N.am      1 <0>        -0.4298
     24 N6          3.7990    2.0134    0.8563 N.pl3     1 <0>        -0.3794
     25 H1         -7.9558    1.1177   -0.0726 H         1 <0>         0.0886
     26 H2         -7.2101    0.1817   -1.3902 H         1 <0>         0.0834
     27 H3         -7.0051   -0.3405    0.2990 H         1 <0>         0.0834
     28 H4         -5.4754    0.8202    1.7817 H         1 <0>         0.1355
     29 H5         -3.4384    2.1901    1.9626 H         1 <0>         0.1410
     30 H6         -3.9357    3.4513   -2.0907 H         1 <0>         0.1418
     31 H7         -5.9657    2.0705   -2.2667 H         1 <0>         0.1362
     32 H8         -0.0667    4.8437    0.0222 H         1 <0>         0.1840
     33 H9          0.0084    0.0048   -0.1457 H         1 <0>         0.2022
     34 H10         4.3907    7.3864    0.1189 H         1 <0>         0.1051
     35 H11         5.4699    6.5716   -1.0386 H         1 <0>         0.0922
     36 H12         3.8787    7.1653   -1.5714 H         1 <0>         0.0943
     37 H13         6.4897    3.5244   -1.3429 H         1 <0>         0.2187
     38 H14         7.7544    3.7343   -0.2570 H         1 <0>         0.2253
     39 H15         3.0699    1.3795    0.9422 H         1 <0>         0.2479
     40 H16         4.6949    1.7624    1.1308 H         1 <0>         0.2438
@<TRIPOS>BOND
     1    1    2 1
     2    1   25 1
     3    1   26 1
     4    1   27 1
     5    2    7 ar
     6    2    3 ar
     7    3    4 ar
     8    3   28 1
     9    4    5 ar
    10    4   29 1
    11    5    6 ar
    12    5    8 1
    13    6    7 ar
    14    6   30 1
    15    7   31 1
    16    8    9 1
    17    9   14 ar
    18    9   10 ar
    19   10   11 ar
    20   10   32 1
    21   11   12 ar
    22   11   15 1
    23   12   13 ar
    24   13   14 ar
    25   13   33 1
    26   15   19 1
    27   15   16 1
    28   16   17 2
    29   16   24 1
    30   17   18 1
    31   17   21 1
    32   18   19 2
    33   18   20 1
    34   20   34 1
    35   20   35 1
    36   20   36 1
    37   21   22 2
    38   21   23 am
    39   23   37 1
    40   23   38 1
    41   24   39 1
    42   24   40 1
@<TRIPOS>MOLECULE
ZINC00385011
   40    42     0     0     0
SMALL
USER_CHARGES

@<TRIPOS>ATOM
      1 C1         -0.6324   13.0117   -1.0159 C.3       1 <0>        -0.2102
      2 C2         -1.5284   12.6119    0.1580 C.3       1 <0>        -0.0891
      3 C3         -2.2360   11.3217   -0.1668 C.2       1 <0>         0.0057
      4 C4         -3.4934   11.2050   -0.8058 C.2       1 <0>        -0.3758
      5 C5         -3.7704    9.8445   -0.9153 C.2       1 <0>         0.2174
      6 N1         -2.7255    9.1809   -0.3558 N.pl3     1 <0>        -0.1242
      7 N2         -1.7945   10.1240    0.0929 N.2       1 <0>        -0.0903
      8 C6         -2.5993    7.7956   -0.2519 C.ar      1 <0>         0.2270
      9 C7         -1.3428    7.2065   -0.1616 C.ar      1 <0>        -0.2527
     10 C8         -1.2701    5.8214   -0.0602 C.ar      1 <0>         0.2042
     11 N3         -2.3962    5.1143   -0.0584 N.ar      1 <0>        -0.2882
     12 C9         -3.5687    5.7097   -0.1408 C.ar      1 <0>         0.0824
     13 N4         -3.6790    7.0189   -0.2382 N.ar      1 <0>        -0.2986
     14 O1         -0.0685    5.2008    0.0297 O.3       1 <0>        -0.1290
     15 C10        -0.0487    3.8422    0.0051 C.ar      1 <0>         0.0573
     16 C11        -0.3455    3.1640   -1.1683 C.ar      1 <0>        -0.1236
     17 C12        -0.3242    1.7830   -1.1908 C.ar      1 <0>        -0.1178
     18 C13        -0.0075    1.0765   -0.0452 C.ar      1 <0>        -0.1242
     19 C14         0.2836    1.7499    1.1269 C.ar      1 <0>        -0.1189
     20 C15         0.2688    3.1309    1.1533 C.ar      1 <0>        -0.1198
     21 N5         -4.8932    9.2786   -1.4815 N.pl3     1 <0>        -0.3796
     22 C16        -4.3419   12.3086   -1.2708 C.2       1 <0>         0.3868
     23 O2         -4.2144   12.7394   -2.4017 O.2       1 <0>        -0.3653
     24 N6         -5.2624   12.8449   -0.4452 N.am      1 <0>        -0.4294
     25 H1         -1.2424   13.1467   -1.9091 H         1 <0>         0.0957
     26 H2         -0.1205   13.9449   -0.7810 H         1 <0>         0.0756
     27 H3          0.1042   12.2282   -1.1941 H         1 <0>         0.0826
     28 H4         -2.2650   13.3954    0.3362 H         1 <0>         0.0961
     29 H5         -0.9183   12.4769    1.0512 H         1 <0>         0.0984
     30 H6         -0.4466    7.8091   -0.1697 H         1 <0>         0.1842
     31 H7         -4.4648    5.1070   -0.1324 H         1 <0>         0.2025
     32 H8         -0.5933    3.7154   -2.0633 H         1 <0>         0.1399
     33 H9         -0.5555    1.2546   -2.1039 H         1 <0>         0.1346
     34 H10         0.0083   -0.0032   -0.0647 H         1 <0>         0.1325
     35 H11         0.5267    1.1957    2.0214 H         1 <0>         0.1357
     36 H12         0.4999    3.6565    2.0681 H         1 <0>         0.1426
     37 H13        -4.9907    8.3138   -1.5052 H         1 <0>         0.2478
     38 H14        -5.5856    9.8454   -1.8560 H         1 <0>         0.2438
     39 H15        -5.3641   12.5015    0.4563 H         1 <0>         0.2188
     40 H16        -5.8232   13.5743   -0.7525 H         1 <0>         0.2253
@<TRIPOS>BOND
     1    1    2 1
     2    1   25 1
     3    1   26 1
     4    1   27 1
     5    2    3 1
     6    2   28 1
     7    2   29 1
     8    3    7 2
     9    3    4 1
    10    4    5 2
    11    4   22 1
    12    5    6 1
    13    5   21 1
    14    6    7 1
    15    6    8 1
    16    8   13 ar
    17    8    9 ar
    18    9   10 ar
    19    9   30 1
    20   10   11 ar
    21   10   14 1
    22   11   12 ar
    23   12   13 ar
    24   12   31 1
    25   14   15 1
    26   15   20 ar
    27   15   16 ar
    28   16   17 ar
    29   16   32 1
    30   17   18 ar
    31   17   33 1
    32   18   19 ar
    33   18   34 1
    34   19   20 ar
    35   19   35 1
    36   20   36 1
    37   21   37 1
    38   21   38 1
    39   22   23 2
    40   22   24 am
    41   24   39 1
    42   24   40 1
@<TRIPOS>MOLECULE
ZINC00385129
   40    42     0     0     0
SMALL
USER_CHARGES

@<TRIPOS>ATOM
      1 C1         -1.5288   12.6118    0.1564 C.3       1 <0>        -0.1404
      2 C2         -2.2364   11.3215   -0.1684 C.2       1 <0>         0.0031
      3 C3         -3.4938   11.2047   -0.8074 C.2       1 <0>        -0.3775
      4 C4         -3.7707    9.8442   -0.9168 C.2       1 <0>         0.2180
      5 N1         -2.7257    9.1807   -0.3575 N.pl3     1 <0>        -0.1230
      6 N2         -1.7948   10.1238    0.0912 N.2       1 <0>        -0.0914
      7 C5         -2.5995    7.7954   -0.2536 C.ar      1 <0>         0.2301
      8 C6         -1.3429    7.2063   -0.1634 C.ar      1 <0>        -0.2594
      9 C7         -1.2702    5.8214   -0.0611 C.ar      1 <0>         0.2075
     10 N3         -2.3963    5.1142   -0.0584 N.ar      1 <0>        -0.2887
     11 C8         -3.5687    5.7096   -0.1407 C.ar      1 <0>         0.1311
     12 N4         -3.6792    7.0187   -0.2390 N.ar      1 <0>        -0.2987
     13 C9         -4.8192    4.8686   -0.1279 C.3       1 <0>        -0.1506
     14 O1         -0.0685    5.2009    0.0288 O.3       1 <0>        -0.1295
     15 C10        -0.0487    3.8422    0.0051 C.ar      1 <0>         0.0587
     16 C11        -0.3460    3.1632   -1.1678 C.ar      1 <0>        -0.1236
     17 C12        -0.3256    1.7821   -1.1891 C.ar      1 <0>        -0.1183
     18 C13        -0.0092    1.0764   -0.0429 C.ar      1 <0>        -0.1251
     19 C14         0.2823    1.7506    1.1286 C.ar      1 <0>        -0.1193
     20 C15         0.2684    3.1317    1.1539 C.ar      1 <0>        -0.1202
     21 N5         -4.8938    9.2783   -1.4825 N.pl3     1 <0>        -0.3798
     22 C16        -4.3422   12.3083   -1.2727 C.2       1 <0>         0.3862
     23 O2         -4.2143   12.7390   -2.4035 O.2       1 <0>        -0.3642
     24 N6         -5.2629   12.8446   -0.4474 N.am      1 <0>        -0.4299
     25 H1         -0.8912   12.8971   -0.6803 H         1 <0>         0.1049
     26 H2         -2.2654   13.3950    0.3354 H         1 <0>         0.0919
     27 H3         -0.9180   12.4765    1.0490 H         1 <0>         0.0942
     28 H4         -0.4467    7.8089   -0.1729 H         1 <0>         0.1833
     29 H5         -5.0816    4.5922   -1.1492 H         1 <0>         0.1006
     30 H6         -4.6446    3.9669    0.4590 H         1 <0>         0.1091
     31 H7         -5.6358    5.4383    0.3155 H         1 <0>         0.1018
     32 H8         -0.5935    3.7140   -2.0632 H         1 <0>         0.1401
     33 H9         -0.5572    1.2531   -2.1017 H         1 <0>         0.1342
     34 H10         0.0058   -0.0033   -0.0615 H         1 <0>         0.1321
     35 H11         0.5250    1.1970    2.0236 H         1 <0>         0.1353
     36 H12         0.4998    3.6579    2.0682 H         1 <0>         0.1425
     37 H13        -4.9914    8.3135   -1.5058 H         1 <0>         0.2481
     38 H14        -5.5862    9.8451   -1.8570 H         1 <0>         0.2433
     39 H15        -5.3648   12.5013    0.4541 H         1 <0>         0.2186
     40 H16        -5.8236   13.5740   -0.7548 H         1 <0>         0.2251
@<TRIPOS>BOND
     1    1    2 1
     2    1   25 1
     3    1   26 1
     4    1   27 1
     5    2    6 2
     6    2    3 1
     7    3    4 2
     8    3   22 1
     9    4    5 1
    10    4   21 1
    11    5    6 1
    12    5    7 1
    13    7   12 ar
    14    7    8 ar
    15    8    9 ar
    16    8   28 1
    17    9   10 ar
    18    9   14 1
    19   10   11 ar
    20   11   12 ar
    21   11   13 1
    22   13   29 1
    23   13   30 1
    24   13   31 1
    25   14   15 1
    26   15   20 ar
    27   15   16 ar
    28   16   17 ar
    29   16   32 1
    30   17   18 ar
    31   17   33 1
    32   18   19 ar
    33   18   34 1
    34   19   20 ar
    35   19   35 1
    36   20   36 1
    37   21   37 1
    38   21   38 1
    39   22   23 2
    40   22   24 am
    41   24   39 1
    42   24   40 1
@<TRIPOS>MOLECULE
ZINC00385130
   43    45     0     0     0
SMALL
USER_CHARGES

@<TRIPOS>ATOM
      1 C1         -0.7556    1.5920   -1.2346 C.3       1 <0>        -0.2102
      2 C2         -0.0153    1.0404   -0.0145 C.3       1 <0>        -0.0889
      3 C3         -0.6971    1.5141    1.2432 C.2       1 <0>         0.0047
      4 C4         -0.3965    2.7024    1.9508 C.2       1 <0>        -0.3765
      5 C5         -1.2594    2.7560    3.0427 C.2       1 <0>         0.2174
      6 N1         -2.0337    1.6411    2.9911 N.pl3     1 <0>        -0.1233
      7 N2         -1.6595    0.8968    1.8672 N.2       1 <0>        -0.0897
      8 C6         -3.0313    1.2969    3.9033 C.ar      1 <0>         0.2303
      9 C7         -4.0797    0.4666    3.5222 C.ar      1 <0>        -0.2596
     10 C8         -5.0491    0.1524    4.4685 C.ar      1 <0>         0.2080
     11 N3         -4.9399    0.6534    5.6954 N.ar      1 <0>        -0.2894
     12 C9         -3.9312    1.4370    6.0184 C.ar      1 <0>         0.1309
     13 N4         -2.9906    1.7536    5.1520 N.ar      1 <0>        -0.2987
     14 C10        -3.8478    1.9822    7.4209 C.3       1 <0>        -0.1489
     15 O1         -6.0900   -0.6533    4.1451 O.3       1 <0>        -0.1304
     16 C11        -6.9527   -1.0087    5.1332 C.ar      1 <0>         0.0563
     17 C12        -6.8879   -2.2784    5.6889 C.ar      1 <0>        -0.1214
     18 C13        -7.7622   -2.6352    6.6971 C.ar      1 <0>        -0.1205
     19 C14        -8.7085   -1.7320    7.1449 C.ar      1 <0>        -0.1234
     20 C15        -8.7792   -0.4682    6.5886 C.ar      1 <0>        -0.1204
     21 C16        -7.9035   -0.1044    5.5841 C.ar      1 <0>        -0.1177
     22 N5         -1.3135    3.7491    3.9978 N.pl3     1 <0>        -0.3800
     23 C17         0.6279    3.6926    1.5985 C.2       1 <0>         0.3869
     24 O2          0.3463    4.6274    0.8721 O.2       1 <0>        -0.3656
     25 N6          1.8806    3.5666    2.0795 N.am      1 <0>        -0.4296
     26 H1         -0.7452    2.6815   -1.2040 H         1 <0>         0.0955
     27 H2         -0.2624    1.2494   -2.1443 H         1 <0>         0.0752
     28 H3         -1.7864    1.2380   -1.2248 H         1 <0>         0.0827
     29 H4         -0.0256   -0.0491   -0.0452 H         1 <0>         0.0981
     30 H5          1.0156    1.3944   -0.0244 H         1 <0>         0.0958
     31 H6         -4.1394    0.0755    2.5173 H         1 <0>         0.1831
     32 H7         -3.2813    1.2919    8.0459 H         1 <0>         0.1053
     33 H8         -3.3488    2.9511    7.4050 H         1 <0>         0.0973
     34 H9         -4.8531    2.0978    7.8261 H         1 <0>         0.1070
     35 H10        -6.1516   -2.9856    5.3365 H         1 <0>         0.1420
     36 H11        -7.7093   -3.6219    7.1330 H         1 <0>         0.1352
     37 H12        -9.3939   -2.0143    7.9304 H         1 <0>         0.1321
     38 H13        -9.5195    0.2353    6.9399 H         1 <0>         0.1343
     39 H14        -7.9591    0.8829    5.1498 H         1 <0>         0.1413
     40 H15        -1.9529    3.6886    4.7247 H         1 <0>         0.2478
     41 H16        -0.7121    4.5082    3.9428 H         1 <0>         0.2432
     42 H17         2.1051    2.8215    2.6586 H         1 <0>         0.2187
     43 H18         2.5577    4.2210    1.8467 H         1 <0>         0.2250
@<TRIPOS>BOND
     1    1    2 1
     2    1   26 1
     3    1   27 1
     4    1   28 1
     5    2    3 1
     6    2   29 1
     7    2   30 1
     8    3    7 2
     9    3    4 1
    10    4    5 2
    11    4   23 1
    12    5    6 1
    13    5   22 1
    14    6    7 1
    15    6    8 1
    16    8   13 ar
    17    8    9 ar
    18    9   10 ar
    19    9   31 1
    20   10   11 ar
    21   10   15 1
    22   11   12 ar
    23   12   13 ar
    24   12   14 1
    25   14   32 1
    26   14   33 1
    27   14   34 1
    28   15   16 1
    29   16   21 ar
    30   16   17 ar
    31   17   18 ar
    32   17   35 1
    33   18   19 ar
    34   18   36 1
    35   19   20 ar
    36   19   37 1
    37   20   21 ar
    38   20   38 1
    39   21   39 1
    40   22   40 1
    41   22   41 1
    42   23   24 2
    43   23   25 am
    44   25   42 1
    45   25   43 1
@<TRIPOS>MOLECULE
ZINC00385170
   43    45     0     0     0
SMALL
USER_CHARGES

@<TRIPOS>ATOM
      1 C1         -1.1148    1.2639   -0.8700 C.3       1 <0>        -0.2077
      2 C2         -0.1451    0.8814    0.2499 C.3       1 <0>        -0.0924
      3 C3         -0.7104    1.3211    1.5758 C.2       1 <0>         0.0060
      4 C4         -1.5488    0.5496    2.4154 C.2       1 <0>        -0.3752
      5 C5         -1.8364    1.3300    3.5325 C.2       1 <0>         0.2174
      6 N1         -1.1955    2.5157    3.3635 N.pl3     1 <0>        -0.1239
      7 N2         -0.5059    2.4739    2.1469 N.2       1 <0>        -0.0908
      8 C6         -1.2176    3.5898    4.2531 C.ar      1 <0>         0.2264
      9 C7         -0.1766    4.5118    4.2718 C.ar      1 <0>        -0.2544
     10 C8         -0.2455    5.5654    5.1769 C.ar      1 <0>         0.2045
     11 N3         -1.2968    5.6532    5.9864 N.ar      1 <0>        -0.2868
     12 C9         -2.2636    4.7594    5.9386 C.ar      1 <0>         0.0815
     13 N4         -2.2372    3.7503    5.0920 N.ar      1 <0>        -0.2993
     14 O1          0.7443    6.4896    5.2327 O.3       1 <0>        -0.1285
     15 C10         0.5761    7.5555    6.0589 C.ar      1 <0>         0.0523
     16 C11         1.0861    7.5220    7.3490 C.ar      1 <0>        -0.1129
     17 C12         0.9175    8.6083    8.1853 C.ar      1 <0>        -0.1269
     18 C13         0.2326    9.7246    7.7413 C.ar      1 <0>        -0.1171
     19 C14        -0.2806    9.7585    6.4580 C.ar      1 <0>        -0.1220
     20 C15        -0.1106    8.6765    5.6159 C.ar      1 <0>        -0.0649
     21 C16        -0.6711    8.7137    4.2175 C.3       1 <0>        -0.1795
     22 N5         -2.6227    0.9680    4.6059 N.pl3     1 <0>        -0.3795
     23 C17        -2.0246   -0.8147    2.1578 C.2       1 <0>         0.3866
     24 O2         -1.3737   -1.7687    2.5411 O.2       1 <0>        -0.3644
     25 N6         -3.1826   -1.0109    1.4966 N.am      1 <0>        -0.4294
     26 H1         -0.7059    0.9459   -1.8291 H         1 <0>         0.0790
     27 H2         -2.0739    0.7736   -0.7034 H         1 <0>         0.0733
     28 H3         -1.2554    2.3448   -0.8755 H         1 <0>         0.0834
     29 H4         -0.0045   -0.1995    0.2553 H         1 <0>         0.1082
     30 H5          0.8141    1.3717    0.0832 H         1 <0>         0.1032
     31 H6          0.6636    4.4123    3.6005 H         1 <0>         0.1838
     32 H7         -3.1038    4.8592    6.6097 H         1 <0>         0.2022
     33 H8          1.6172    6.6487    7.6978 H         1 <0>         0.1413
     34 H9          1.3175    8.5843    9.1882 H         1 <0>         0.1347
     35 H10         0.0980   10.5712    8.3982 H         1 <0>         0.1322
     36 H11        -0.8151   10.6315    6.1136 H         1 <0>         0.1356
     37 H12        -1.6869    8.3185    4.2226 H         1 <0>         0.0909
     38 H13        -0.6834    9.7428    3.8583 H         1 <0>         0.0845
     39 H14        -0.0484    8.1069    3.5602 H         1 <0>         0.0932
     40 H15        -3.0381    0.0917    4.6291 H         1 <0>         0.2437
     41 H16        -2.7605    1.5896    5.3377 H         1 <0>         0.2480
     42 H17        -3.7015   -0.2505    1.1910 H         1 <0>         0.2183
     43 H18        -3.4970   -1.9126    1.3264 H         1 <0>         0.2252
@<TRIPOS>BOND
     1    1    2 1
     2    1   26 1
     3    1   27 1
     4    1   28 1
     5    2    3 1
     6    2   29 1
     7    2   30 1
     8    3    7 2
     9    3    4 1
    10    4    5 2
    11    4   23 1
    12    5    6 1
    13    5   22 1
    14    6    7 1
    15    6    8 1
    16    8   13 ar
    17    8    9 ar
    18    9   10 ar
    19    9   31 1
    20   10   11 ar
    21   10   14 1
    22   11   12 ar
    23   12   13 ar
    24   12   32 1
    25   14   15 1
    26   15   20 ar
    27   15   16 ar
    28   16   17 ar
    29   16   33 1
    30   17   18 ar
    31   17   34 1
    32   18   19 ar
    33   18   35 1
    34   19   20 ar
    35   19   36 1
    36   20   21 1
    37   21   37 1
    38   21   38 1
    39   21   39 1
    40   22   40 1
    41   22   41 1
    42   23   24 2
    43   23   25 am
    44   25   42 1
    45   25   43 1
@<TRIPOS>MOLECULE
ZINC00386402
   44    46     0     0     0
SMALL
USER_CHARGES

@<TRIPOS>ATOM
      1 C1          0.0275   -4.7776   -1.4749 C.3       1 <0>        -0.1981
      2 C2          0.7925   -4.2120   -0.2767 C.3       1 <0>        -0.0307
      3 C3          2.2856   -4.5026   -0.4416 C.3       1 <0>        -0.2045
      4 C4          0.2842   -4.8678    1.0087 C.3       1 <0>        -0.1982
      5 C5          0.5761   -2.7225   -0.2003 C.ar      1 <0>        -0.0737
      6 C6         -0.7024   -2.2178   -0.0498 C.ar      1 <0>        -0.0982
      7 C7         -0.9034   -0.8529    0.0210 C.ar      1 <0>        -0.1881
      8 C8          0.1788    0.0116   -0.0594 C.ar      1 <0>         0.0446
      9 C9          1.4601   -0.4973   -0.2162 C.ar      1 <0>        -0.1308
     10 C10         1.6563   -1.8632   -0.2803 C.ar      1 <0>        -0.1113
     11 O1         -0.0164    1.3547    0.0095 O.3       1 <0>        -0.1076
     12 C11        -1.2630    1.8024    0.2916 C.2       1 <0>         0.1336
     13 N1         -2.3061    1.0655    0.5967 N.2       1 <0>        -0.2063
     14 N2         -3.3339    1.8051    0.8102 N.2       1 <0>         0.0126
     15 N3         -3.0326    3.0484    0.6509 N.2       1 <0>        -0.0276
     16 N4         -1.6703    3.0952    0.3064 N.pl3     1 <0>        -0.1344
     17 C12        -0.9005    4.2319    0.0365 C.ar      1 <0>         0.0754
     18 C13         0.4361    4.2709    0.4176 C.ar      1 <0>        -0.1341
     19 C14         1.1982    5.3863    0.1492 C.ar      1 <0>        -0.0926
     20 C15         0.6239    6.4835   -0.4972 C.ar      1 <0>        -0.1232
     21 C16        -0.7207    6.4429   -0.8739 C.ar      1 <0>        -0.0555
     22 C17        -1.4754    5.3221   -0.6070 C.ar      1 <0>        -0.1203
     23 C18         1.4362    7.6837   -0.7813 C.2       1 <0>         0.3481
     24 O2          0.9348    8.6379   -1.3436 O.2       1 <0>        -0.3605
     25 N5          2.7333    7.7212   -0.4171 N.am      1 <0>        -0.4260
     26 H1          0.3896   -4.3104   -2.3907 H         1 <0>         0.0790
     27 H2          0.1840   -5.8549   -1.5302 H         1 <0>         0.0765
     28 H3         -1.0362   -4.5706   -1.3575 H         1 <0>         0.0771
     29 H4          2.8306   -4.0996    0.4120 H         1 <0>         0.0766
     30 H5          2.4421   -5.5798   -0.4969 H         1 <0>         0.0780
     31 H6          2.6477   -4.0353   -1.3574 H         1 <0>         0.0767
     32 H7         -0.7795   -4.6608    1.1261 H         1 <0>         0.0776
     33 H8          0.4407   -5.9451    0.9534 H         1 <0>         0.0763
     34 H9          0.8292   -4.4649    1.8623 H         1 <0>         0.0792
     35 H10        -1.5444   -2.8911    0.0128 H         1 <0>         0.1412
     36 H11        -1.9021   -0.4592    0.1393 H         1 <0>         0.2150
     37 H12         2.3037    0.1737   -0.2835 H         1 <0>         0.1383
     38 H13         2.6539   -2.2600   -0.3974 H         1 <0>         0.1450
     39 H14         0.8783    3.4239    0.9210 H         1 <0>         0.1536
     40 H15         2.2374    5.4143    0.4418 H         1 <0>         0.1353
     41 H16        -1.1681    7.2895   -1.3735 H         1 <0>         0.1696
     42 H17        -2.5151    5.2901   -0.8976 H         1 <0>         0.1614
     43 H18         3.1333    6.9599    0.0315 H         1 <0>         0.2158
     44 H19         3.2668    8.5095   -0.6037 H         1 <0>         0.2353
@<TRIPOS>BOND
     1    1    2 1
     2    1   26 1
     3    1   27 1
     4    1   28 1
     5    2    3 1
     6    2    4 1
     7    2    5 1
     8    3   29 1
     9    3   30 1
    10    3   31 1
    11    4   32 1
    12    4   33 1
    13    4   34 1
    14    5   10 ar
    15    5    6 ar
    16    6    7 ar
    17    6   35 1
    18    7    8 ar
    19    7   36 1
    20    8    9 ar
    21    8   11 1
    22    9   10 ar
    23    9   37 1
    24   10   38 1
    25   11   12 1
    26   12   16 1
    27   12   13 2
    28   13   14 1
    29   14   15 2
    30   15   16 1
    31   16   17 1
    32   17   22 ar
    33   17   18 ar
    34   18   19 ar
    35   18   39 1
    36   19   20 ar
    37   19   40 1
    38   20   21 ar
    39   20   23 1
    40   21   22 ar
    41   21   41 1
    42   22   42 1
    43   23   24 2
    44   23   25 am
    45   25   43 1
    46   25   44 1
@<TRIPOS>MOLECULE
ZINC00386462
   39    41     0     0     0
SMALL
USER_CHARGES

@<TRIPOS>ATOM
      1 C1         -9.5043   -3.2535   -1.3988 C.3       1 <0>        -0.0619
      2 O1         -8.1561   -2.7838   -1.3363 O.3       1 <0>        -0.2054
      3 C2         -7.9495   -1.5778   -0.7431 C.ar      1 <0>         0.0828
      4 C3         -9.0235   -0.8634   -0.2326 C.ar      1 <0>        -0.2041
      5 C4         -8.8170    0.3630    0.3707 C.ar      1 <0>        -0.1630
      6 C5         -7.5363    0.8820    0.4675 C.ar      1 <0>         0.0222
      7 C6         -6.4559    0.1670   -0.0436 C.ar      1 <0>         0.0754
      8 C7         -6.6664   -1.0608   -0.6536 C.ar      1 <0>        -0.1374
      9 N1         -5.1595    0.6896    0.0531 N.am      1 <0>        -0.3067
     10 C8         -4.0961   -0.1382    0.0350 C.2       1 <0>         0.3135
     11 O2         -4.2628   -1.3397    0.0364 O.2       1 <0>        -0.3408
     12 C9         -2.7001    0.4288    0.0132 C.3       1 <0>        -0.3275
     13 S1         -1.4991   -0.9252   -0.0076 S.3       1 <0>         0.3606
     14 C10         0.0018   -0.0026   -0.0308 C.ar      1 <0>        -0.0516
     15 C11         1.2473   -0.6551   -0.0520 C.ar      1 <0>        -0.1501
     16 C12         2.4091    0.1343   -0.0703 C.ar      1 <0>         0.0587
     17 N2          3.4629   -0.7440   -0.0886 N.pl3     1 <0>        -0.2085
     18 H1          4.4334   -0.5035   -0.1043 H         1 <0>         0.2660
     19 C13         2.9443   -2.0046   -0.0815 C.2       1 <0>        -0.0256
     20 N3          1.6441   -1.9500   -0.0600 N.2       1 <0>        -0.1436
     21 N4          2.2908    1.4585   -0.0673 N.ar      1 <0>        -0.2310
     22 C14         1.1034    2.0262   -0.0467 C.ar      1 <0>         0.0474
     23 N5         -0.0166    1.3270   -0.0290 N.ar      1 <0>        -0.2590
     24 O3         -7.3340    2.0890    1.0618 O.3       1 <0>        -0.2258
     25 C15        -8.4877    2.7667    1.5635 C.3       1 <0>        -0.0585
     26 H2        -10.1109   -2.5431   -1.9604 H         1 <0>         0.0647
     27 H3         -9.5284   -4.2237   -1.8949 H         1 <0>         0.1082
     28 H4         -9.9019   -3.3520   -0.3887 H         1 <0>         0.0670
     29 H5        -10.0228   -1.2661   -0.3070 H         1 <0>         0.1357
     30 H6         -9.6550    0.9174    0.7666 H         1 <0>         0.1371
     31 H7         -5.8310   -1.6152   -1.0551 H         1 <0>         0.1897
     32 H8         -5.0274    1.6472    0.1330 H         1 <0>         0.2455
     33 H9         -2.5425    1.0406    0.9014 H         1 <0>         0.1363
     34 H10        -2.5711    1.0426   -0.8783 H         1 <0>         0.1362
     35 H11         3.5263   -2.9143   -0.0918 H         1 <0>         0.2124
     36 H12         1.0429    3.1045   -0.0445 H         1 <0>         0.1989
     37 H13        -8.1868    3.7139    2.0110 H         1 <0>         0.1061
     38 H14        -9.1824    2.9560    0.7451 H         1 <0>         0.0667
     39 H15        -8.9741    2.1471    2.3169 H         1 <0>         0.0695
@<TRIPOS>BOND
     1    1    2 1
     2    1   26 1
     3    1   27 1
     4    1   28 1
     5    2    3 1
     6    3    8 ar
     7    3    4 ar
     8    4    5 ar
     9    4   29 1
    10    5    6 ar
    11    5   30 1
    12    6    7 ar
    13    6   24 1
    14    7    8 ar
    15    7    9 1
    16    8   31 1
    17    9   10 am
    18    9   32 1
    19   10   11 2
    20   10   12 1
    21   12   13 1
    22   12   33 1
    23   12   34 1
    24   13   14 1
    25   14   23 ar
    26   14   15 ar
    27   15   20 1
    28   15   16 ar
    29   16   17 1
    30   16   21 ar
    31   17   18 1
    32   17   19 1
    33   19   20 2
    34   19   35 1
    35   21   22 ar
    36   22   23 ar
    37   22   36 1
    38   24   25 1
    39   25   37 1
    40   25   38 1
    41   25   39 1
@<TRIPOS>MOLECULE
ZINC00386462
   39    41     0     0     0
SMALL
USER_CHARGES

@<TRIPOS>ATOM
      1 C1         -9.5043   -3.2535   -1.3988 C.3       1 <0>        -0.0621
      2 O1         -8.1561   -2.7838   -1.3363 O.3       1 <0>        -0.2063
      3 C2         -7.9495   -1.5778   -0.7431 C.ar      1 <0>         0.0824
      4 C3         -9.0235   -0.8634   -0.2326 C.ar      1 <0>        -0.2024
      5 C4         -8.8170    0.3630    0.3707 C.ar      1 <0>        -0.1625
      6 C5         -7.5363    0.8820    0.4675 C.ar      1 <0>         0.0242
      7 C6         -6.4559    0.1670   -0.0436 C.ar      1 <0>         0.0734
      8 C7         -6.6664   -1.0608   -0.6536 C.ar      1 <0>        -0.1376
      9 N1         -5.1595    0.6896    0.0531 N.am      1 <0>        -0.3044
     10 C8         -4.0961   -0.1382    0.0350 C.2       1 <0>         0.3121
     11 O2         -4.2628   -1.3397    0.0364 O.2       1 <0>        -0.3442
     12 C9         -2.7001    0.4288    0.0132 C.3       1 <0>        -0.2982
     13 S1         -1.4991   -0.9252   -0.0076 S.3       1 <0>         0.2708
     14 C10         0.0018   -0.0026   -0.0308 C.ar      1 <0>        -0.0752
     15 C11         1.2473   -0.6551   -0.0520 C.ar      1 <0>        -0.1903
     16 C12         2.4091    0.1343   -0.0703 C.ar      1 <0>         0.0754
     17 N2          3.4629   -0.7440   -0.0886 N.2       1 <0>        -0.1627
     18 H1          1.0329   -2.7414   -0.0508 H         1 <0>         0.2621
     19 C13         2.9443   -2.0046   -0.0815 C.2       1 <0>        -0.0237
     20 N3          1.6441   -1.9500   -0.0600 N.pl3     1 <0>        -0.1442
     21 N4          2.2908    1.4585   -0.0673 N.ar      1 <0>        -0.1721
     22 C14         1.1034    2.0262   -0.0467 C.ar      1 <0>         0.0276
     23 N5         -0.0166    1.3270   -0.0290 N.ar      1 <0>        -0.2439
     24 O3         -7.3340    2.0890    1.0618 O.3       1 <0>        -0.2258
     25 C15        -8.4877    2.7667    1.5635 C.3       1 <0>        -0.0587
     26 H2        -10.1109   -2.5431   -1.9604 H         1 <0>         0.0655
     27 H3         -9.5284   -4.2237   -1.8949 H         1 <0>         0.1085
     28 H4         -9.9019   -3.3520   -0.3887 H         1 <0>         0.0673
     29 H5        -10.0228   -1.2661   -0.3070 H         1 <0>         0.1365
     30 H6         -9.6550    0.9174    0.7666 H         1 <0>         0.1383
     31 H7         -5.8310   -1.6152   -1.0551 H         1 <0>         0.1881
     32 H8         -5.0274    1.6472    0.1330 H         1 <0>         0.2467
     33 H9         -2.5425    1.0406    0.9014 H         1 <0>         0.1397
     34 H10        -2.5711    1.0426   -0.8783 H         1 <0>         0.1396
     35 H11         3.5263   -2.9143   -0.0921 H         1 <0>         0.2113
     36 H12         1.0429    3.1045   -0.0445 H         1 <0>         0.2007
     37 H13        -8.1868    3.7139    2.0110 H         1 <0>         0.1072
     38 H14        -9.1824    2.9560    0.7451 H         1 <0>         0.0673
     39 H15        -8.9741    2.1471    2.3169 H         1 <0>         0.0697
@<TRIPOS>BOND
     1    1    2 1
     2    1   26 1
     3    1   27 1
     4    1   28 1
     5    2    3 1
     6    3    8 ar
     7    3    4 ar
     8    4    5 ar
     9    4   29 1
    10    5    6 ar
    11    5   30 1
    12    6    7 ar
    13    6   24 1
    14    7    8 ar
    15    7    9 1
    16    8   31 1
    17    9   10 am
    18    9   32 1
    19   10   11 2
    20   10   12 1
    21   12   13 1
    22   12   33 1
    23   12   34 1
    24   13   14 1
    25   14   23 ar
    26   14   15 ar
    27   15   20 1
    28   15   16 ar
    29   16   17 1
    30   16   21 ar
    31   17   19 2
    32   18   20 1
    33   19   35 1
    34   19   20 1
    35   21   22 ar
    36   22   23 ar
    37   22   36 1
    38   24   25 1
    39   25   37 1
    40   25   38 1
    41   25   39 1
@<TRIPOS>MOLECULE
ZINC00389256
   41    43     0     0     0
SMALL
USER_CHARGES

@<TRIPOS>ATOM
      1 C1         -2.8853    1.9062    1.7735 C.3       1 <0>        -0.1229
      2 N1         -2.3698    1.3013    0.5380 N.pl3     1 <0>        -0.2166
      3 C2         -3.3414    1.4296   -0.5562 C.3       1 <0>        -0.1231
      4 C3         -1.1483    1.8554    0.1855 C.ar      1 <0>         0.0121
      5 C4          0.0056    1.0367    0.1286 C.ar      1 <0>         0.1518
      6 N2          1.1701    1.5491   -0.2104 N.ar      1 <0>        -0.1841
      7 C5          1.2650    2.8558   -0.4982 C.ar      1 <0>         0.0182
      8 C6          2.4954    3.4254   -0.8627 C.ar      1 <0>        -0.1036
      9 C7          2.5662    4.7549   -1.1507 C.ar      1 <0>        -0.1094
     10 C8          1.4327    5.5611   -1.0895 C.ar      1 <0>        -0.1322
     11 C9          0.2231    5.0416   -0.7391 C.ar      1 <0>        -0.0833
     12 C10         0.1129    3.6752   -0.4355 C.ar      1 <0>        -0.0499
     13 N3         -1.0673    3.1408   -0.0880 N.ar      1 <0>        -0.1335
     14 N4         -0.0925   -0.3143    0.4262 N.pl3     1 <0>        -0.7716
     15 S1          1.2759   -1.2412    0.5283 S.o2      1 <0>         2.7616
     16 O1          0.8526   -2.5543    0.8685 O.2       1 <0>        -0.9195
     17 O2          2.0411   -0.9655   -0.6369 O.2       1 <0>        -0.8882
     18 C11         2.2097   -0.6426    1.8973 C.ar      1 <0>        -0.8144
     19 C12         3.1512    0.3524    1.7079 C.ar      1 <0>         0.0339
     20 C13         3.8809    0.8279    2.7797 C.ar      1 <0>        -0.2384
     21 C14         3.6761    0.2976    4.0472 C.ar      1 <0>         0.1695
     22 C15         2.7336   -0.7057    4.2329 C.ar      1 <0>        -0.2353
     23 C16         2.0034   -1.1727    3.1577 C.ar      1 <0>         0.0169
     24 N5          4.4160    0.7725    5.1325 N.pl3     1 <0>        -0.4099
     25 H1         -3.0174    2.9780    1.6256 H         1 <0>         0.0724
     26 H2         -3.8439    1.4536    2.0270 H         1 <0>         0.0893
     27 H3         -2.1772    1.7358    2.5844 H         1 <0>         0.0889
     28 H4         -2.9278    0.9882   -1.4630 H         1 <0>         0.0913
     29 H5         -4.2620    0.9116   -0.2873 H         1 <0>         0.0896
     30 H6         -3.5554    2.4841   -0.7304 H         1 <0>         0.0712
     31 H7          3.3825    2.8117   -0.9149 H         1 <0>         0.1528
     32 H8          3.5144    5.1896   -1.4307 H         1 <0>         0.1361
     33 H9          1.5135    6.6125   -1.3226 H         1 <0>         0.1356
     34 H10        -0.6481    5.6785   -0.6955 H         1 <0>         0.1477
     35 H11        -0.9628   -0.7163    0.5745 H         1 <0>         0.2737
     36 H12         3.3132    0.7610    0.7213 H         1 <0>         0.1645
     37 H13         4.6129    1.6081    2.6319 H         1 <0>         0.1334
     38 H14         2.5722   -1.1205    5.2170 H         1 <0>         0.1334
     39 H15         1.2702   -1.9525    3.3015 H         1 <0>         0.1460
     40 H16         4.2720    0.4017    6.0172 H         1 <0>         0.2229
     41 H17         5.0739    1.4732    5.0016 H         1 <0>         0.2232
@<TRIPOS>BOND
     1    1    2 1
     2    1   25 1
     3    1   26 1
     4    1   27 1
     5    2    3 1
     6    2    4 1
     7    3   28 1
     8    3   29 1
     9    3   30 1
    10    4   13 ar
    11    4    5 ar
    12    5    6 ar
    13    5   14 1
    14    6    7 ar
    15    7   12 ar
    16    7    8 ar
    17    8    9 ar
    18    8   31 1
    19    9   10 ar
    20    9   32 1
    21   10   11 ar
    22   10   33 1
    23   11   12 ar
    24   11   34 1
    25   12   13 ar
    26   14   15 1
    27   14   35 1
    28   15   16 2
    29   15   17 2
    30   15   18 1
    31   18   23 ar
    32   18   19 ar
    33   19   20 ar
    34   19   36 1
    35   20   21 ar
    36   20   37 1
    37   21   22 ar
    38   21   24 1
    39   22   23 ar
    40   22   38 1
    41   23   39 1
    42   24   40 1
    43   24   41 1
@<TRIPOS>MOLECULE
ZINC00396454
   44    45     0     0     0
SMALL
USER_CHARGES

@<TRIPOS>ATOM
      1 C1         -0.0652    5.2365    1.1451 C.3       1 <0>        -0.1877
      2 C2          0.1565    3.8663    0.5015 C.3       1 <0>        -0.0917
      3 C3          1.2157    3.0965    1.2930 C.3       1 <0>        -0.2019
      4 C4          0.6321    4.0513   -0.9409 C.3       1 <0>        -0.2031
      5 C5         -1.1367    3.0927    0.5088 C.2       1 <0>         0.3100
      6 O1         -2.1374    3.5885    0.9821 O.2       1 <0>        -0.3488
      7 N1         -1.1802    1.8477   -0.0057 N.am      1 <0>        -0.3272
      8 C6         -2.3548    1.0898    0.0919 C.ar      1 <0>         0.0579
      9 C7         -2.2806   -0.2855    0.2662 C.ar      1 <0>        -0.1464
     10 C8         -3.4374   -1.0344    0.3675 C.ar      1 <0>        -0.1567
     11 C9         -4.6755   -0.4146    0.2847 C.ar      1 <0>         0.0243
     12 C10        -4.7524    0.9646    0.1046 C.ar      1 <0>         0.0615
     13 C11        -3.5922    1.7140    0.0085 C.ar      1 <0>        -0.1343
     14 O2         -5.9655    1.5741    0.0227 O.3       1 <0>        -0.2803
     15 N2         -5.8487   -1.1757    0.3818 N.pl3     1 <0>        -0.8014
     16 S1         -5.9044   -2.4860    1.3929 S.o2      1 <0>         2.7654
     17 O3         -7.2447   -2.9575    1.3732 O.2       1 <0>        -0.9123
     18 O4         -4.8010   -3.3123    1.0480 O.2       1 <0>        -0.9200
     19 C12        -5.6016   -1.8972    3.0258 C.ar      1 <0>        -0.7552
     20 C13        -4.3088   -1.8421    3.5121 C.ar      1 <0>        -0.0235
     21 C14        -4.0708   -1.3752    4.7912 C.ar      1 <0>        -0.1493
     22 C15        -5.1266   -0.9737    5.5881 C.ar      1 <0>        -0.0696
     23 C16        -6.4200   -1.0342    5.1038 C.ar      1 <0>        -0.1494
     24 C17        -6.6575   -1.4957    3.8227 C.ar      1 <0>        -0.0202
     25 H1         -0.4040    5.1047    2.1727 H         1 <0>         0.0922
     26 H2          0.8702    5.7961    1.1399 H         1 <0>         0.0746
     27 H3         -0.8198    5.7849    0.5813 H         1 <0>         0.0905
     28 H4          1.3737    2.1203    0.8345 H         1 <0>         0.0694
     29 H5          2.1511    3.6560    1.2878 H         1 <0>         0.0856
     30 H6          0.8769    2.9647    2.3206 H         1 <0>         0.0883
     31 H7         -0.1225    4.5997   -1.5047 H         1 <0>         0.0869
     32 H8          1.5675    4.6108   -0.9461 H         1 <0>         0.0866
     33 H9          0.7901    3.0751   -1.3994 H         1 <0>         0.0687
     34 H10        -0.3983    1.4764   -0.4435 H         1 <0>         0.2349
     35 H11        -1.3173   -0.7702    0.3267 H         1 <0>         0.1368
     36 H12        -3.3775   -2.1037    0.5068 H         1 <0>         0.1870
     37 H13        -3.6497    2.7834   -0.1315 H         1 <0>         0.1787
     38 H14        -6.3148    1.6357   -0.8769 H         1 <0>         0.2232
     39 H15        -6.6279   -0.9348   -0.1433 H         1 <0>         0.2536
     40 H16        -3.4843   -2.1599    2.8911 H         1 <0>         0.1472
     41 H17        -3.0603   -1.3276    5.1694 H         1 <0>         0.1358
     42 H18        -4.9410   -0.6125    6.5888 H         1 <0>         0.1330
     43 H19        -7.2449   -0.7206    5.7264 H         1 <0>         0.1370
     44 H20        -7.6679   -1.5430    3.4443 H         1 <0>         0.1497
@<TRIPOS>BOND
     1    1    2 1
     2    1   25 1
     3    1   26 1
     4    1   27 1
     5    2    3 1
     6    2    4 1
     7    2    5 1
     8    3   28 1
     9    3   29 1
    10    3   30 1
    11    4   31 1
    12    4   32 1
    13    4   33 1
    14    5    6 2
    15    5    7 am
    16    7    8 1
    17    7   34 1
    18    8   13 ar
    19    8    9 ar
    20    9   10 ar
    21    9   35 1
    22   10   11 ar
    23   10   36 1
    24   11   12 ar
    25   11   15 1
    26   12   13 ar
    27   12   14 1
    28   13   37 1
    29   14   38 1
    30   15   16 1
    31   15   39 1
    32   16   17 2
    33   16   18 2
    34   16   19 1
    35   19   24 ar
    36   19   20 ar
    37   20   21 ar
    38   20   40 1
    39   21   22 ar
    40   21   41 1
    41   22   23 ar
    42   22   42 1
    43   23   24 ar
    44   23   43 1
    45   24   44 1
@<TRIPOS>MOLECULE
ZINC00405969
   40    42     0     0     0
SMALL
USER_CHARGES

@<TRIPOS>ATOM
      1 C1         -4.7177   -3.3256   -0.5483 C.3       1 <0>        -0.2352
      2 C2         -3.4123   -2.5637   -0.3106 C.3       1 <0>         0.0626
      3 H1         -2.7323   -2.7390   -1.1443 H         1 <0>         0.1403
      4 C3         -3.7084   -1.0667   -0.2001 C.3       1 <0>        -0.2116
      5 C4         -2.4127   -0.3052   -0.0891 C.2       1 <0>         0.2981
      6 O1         -1.3564   -0.9012   -0.0975 O.2       1 <0>        -0.3435
      7 N1         -2.4277    1.0381    0.0196 N.am      1 <0>        -0.3273
      8 C5         -1.2255    1.7541    0.0116 C.ar      1 <0>         0.0749
      9 C6         -0.1525    1.3031   -0.7468 C.ar      1 <0>        -0.1349
     10 C7          1.0324    2.0128   -0.7589 C.ar      1 <0>        -0.0985
     11 C8          1.1555    3.1701   -0.0133 C.ar      1 <0>        -0.1692
     12 C9          0.0887    3.6223    0.7502 C.ar      1 <0>         0.0856
     13 C10        -1.1019    2.9126    0.7653 C.ar      1 <0>        -0.1898
     14 O2          0.2110    4.7606    1.4825 O.3       1 <0>        -0.2903
     15 N2         -2.7928   -3.0320    0.9316 N.am      1 <0>        -0.3127
     16 C11        -3.3683   -2.9554    2.1451 C.2       1 <0>         0.3637
     17 O3         -4.4671   -2.4949    2.3808 O.2       1 <0>        -0.3237
     18 C12        -2.4409   -3.5286    3.1432 C.ar      1 <0>        -0.1363
     19 C13        -2.4913   -3.7170    4.5151 C.ar      1 <0>        -0.0608
     20 C14        -1.4158   -4.2975    5.1690 C.ar      1 <0>        -0.1179
     21 C15        -0.2947   -4.6899    4.4620 C.ar      1 <0>        -0.1131
     22 C16        -0.2303   -4.5081    3.0894 C.ar      1 <0>        -0.0614
     23 C17        -1.2977   -3.9288    2.4223 C.ar      1 <0>        -0.1229
     24 C18        -1.5712   -3.5898    1.0098 C.2       1 <0>         0.3683
     25 O4         -0.8191   -3.7831    0.0760 O.2       1 <0>        -0.2827
     26 H2         -5.1786   -2.9772   -1.4726 H         1 <0>         0.0847
     27 H3         -4.5067   -4.3921   -0.6271 H         1 <0>         0.0900
     28 H4         -5.3976   -3.1503    0.2853 H         1 <0>         0.1023
     29 H5         -4.3161   -0.8809    0.6855 H         1 <0>         0.1322
     30 H6         -4.2488   -0.7368   -1.0873 H         1 <0>         0.1133
     31 H7         -3.2718    1.5085    0.1034 H         1 <0>         0.2329
     32 H8         -0.2463    0.3995   -1.3309 H         1 <0>         0.1622
     33 H9          1.8642    1.6630   -1.3523 H         1 <0>         0.1377
     34 H10         2.0830    3.7233   -0.0252 H         1 <0>         0.1393
     35 H11        -1.9331    3.2629    1.3592 H         1 <0>         0.1390
     36 H12        -0.0447    5.5632    1.0075 H         1 <0>         0.2255
     37 H13        -3.3650   -3.4130    5.0725 H         1 <0>         0.1479
     38 H14        -1.4541   -4.4444    6.2383 H         1 <0>         0.1399
     39 H15         0.5370   -5.1411    4.9828 H         1 <0>         0.1404
     40 H16         0.6480   -4.8170    2.5421 H         1 <0>         0.1511
@<TRIPOS>BOND
     1    1    2 1
     2    1   26 1
     3    1   27 1
     4    1   28 1
     5    2    3 1
     6    2    4 1
     7    2   15 1
     8    4    5 1
     9    4   29 1
    10    4   30 1
    11    5    6 2
    12    5    7 am
    13    7    8 1
    14    7   31 1
    15    8   13 ar
    16    8    9 ar
    17    9   10 ar
    18    9   32 1
    19   10   11 ar
    20   10   33 1
    21   11   12 ar
    22   11   34 1
    23   12   13 ar
    24   12   14 1
    25   13   35 1
    26   14   36 1
    27   15   24 am
    28   15   16 am
    29   16   17 2
    30   16   18 1
    31   18   23 ar
    32   18   19 ar
    33   19   20 ar
    34   19   37 1
    35   20   21 ar
    36   20   38 1
    37   21   22 ar
    38   21   39 1
    39   22   23 ar
    40   22   40 1
    41   23   24 1
    42   24   25 2
@<TRIPOS>MOLECULE
ZINC00405998
   43    45     0     0     0
SMALL
USER_CHARGES

@<TRIPOS>ATOM
      1 C1         -2.9750   -3.9344    1.1851 C.3       1 <0>        -0.2224
      2 C2         -1.7137   -3.0810    1.0380 C.3       1 <0>        -0.1327
      3 C3         -0.8101   -3.2925    2.2544 C.3       1 <0>        -0.2054
      4 C4         -0.9649   -3.4923   -0.2313 C.3       1 <0>         0.0286
      5 H1         -0.7547   -4.5614   -0.1988 H         1 <0>         0.1382
      6 C5         -1.8137   -3.1837   -1.4376 C.2       1 <0>         0.2909
      7 O1         -1.5576   -2.2207   -2.1291 O.2       1 <0>        -0.3242
      8 N1         -2.8575   -3.9778   -1.7482 N.am      1 <0>        -0.3277
      9 C6         -3.5821   -3.7530   -2.9238 C.ar      1 <0>         0.0707
     10 C7         -4.1267   -4.8243   -3.6208 C.ar      1 <0>        -0.1720
     11 C8         -4.8428   -4.6022   -4.7809 C.ar      1 <0>        -0.0995
     12 C9         -5.0195   -3.3146   -5.2512 C.ar      1 <0>        -0.1705
     13 C10        -4.4774   -2.2408   -4.5594 C.ar      1 <0>         0.0874
     14 C11        -3.7626   -2.4593   -3.3919 C.ar      1 <0>        -0.1547
     15 O2         -4.6524   -0.9753   -5.0228 O.3       1 <0>        -0.2863
     16 N2          0.2948   -2.7494   -0.3175 N.am      1 <0>        -0.3065
     17 C12         0.3910   -1.4080   -0.2865 C.2       1 <0>         0.3683
     18 O3         -0.5383   -0.6328   -0.1841 O.2       1 <0>        -0.2833
     19 C13         1.8171   -1.0354   -0.3979 C.ar      1 <0>        -0.1240
     20 C14         2.5039    0.1679   -0.4211 C.ar      1 <0>        -0.0605
     21 C15         3.8850    0.1687   -0.5391 C.ar      1 <0>        -0.1126
     22 C16         4.5807   -1.0219   -0.6345 C.ar      1 <0>        -0.1163
     23 C17         3.9071   -2.2332   -0.6122 C.ar      1 <0>        -0.0594
     24 C18         2.5266   -2.2494   -0.4943 C.ar      1 <0>        -0.1329
     25 C19         1.5076   -3.3188   -0.4382 C.2       1 <0>         0.3648
     26 O4          1.7285   -4.5118   -0.4915 O.2       1 <0>        -0.3088
     27 H2         -2.6939   -4.9806    1.3057 H         1 <0>         0.0738
     28 H3         -3.5360   -3.6058    2.0600 H         1 <0>         0.0922
     29 H4         -3.5938   -3.8247    0.2945 H         1 <0>         0.0805
     30 H5         -1.9923   -2.0294    0.9707 H         1 <0>         0.1322
     31 H6          0.0406   -2.6134    2.1975 H         1 <0>         0.0803
     32 H7         -1.3743   -3.0926    3.1653 H         1 <0>         0.0833
     33 H8         -0.4528   -4.3222    2.2669 H         1 <0>         0.0783
     34 H9         -3.1063   -4.7052   -1.1567 H         1 <0>         0.2375
     35 H10        -3.9904   -5.8313   -3.2552 H         1 <0>         0.1297
     36 H11        -5.2658   -5.4362   -5.3212 H         1 <0>         0.1338
     37 H12        -5.5806   -3.1440   -6.1582 H         1 <0>         0.1392
     38 H13        -3.3437   -1.6244   -2.8498 H         1 <0>         0.1796
     39 H14        -5.4459   -0.5386   -4.6841 H         1 <0>         0.2265
     40 H15         1.9650    1.1013   -0.3520 H         1 <0>         0.1517
     41 H16         4.4211    1.1060   -0.5577 H         1 <0>         0.1414
     42 H17         5.6567   -1.0084   -0.7264 H         1 <0>         0.1411
     43 H18         4.4559   -3.1603   -0.6868 H         1 <0>         0.1496
@<TRIPOS>BOND
     1    1    2 1
     2    1   27 1
     3    1   28 1
     4    1   29 1
     5    2    3 1
     6    2    4 1
     7    2   30 1
     8    3   31 1
     9    3   32 1
    10    3   33 1
    11    4    5 1
    12    4    6 1
    13    4   16 1
    14    6    7 2
    15    6    8 am
    16    8    9 1
    17    8   34 1
    18    9   14 ar
    19    9   10 ar
    20   10   11 ar
    21   10   35 1
    22   11   12 ar
    23   11   36 1
    24   12   13 ar
    25   12   37 1
    26   13   14 ar
    27   13   15 1
    28   14   38 1
    29   15   39 1
    30   16   25 am
    31   16   17 am
    32   17   18 2
    33   17   19 1
    34   19   24 ar
    35   19   20 ar
    36   20   21 ar
    37   20   40 1
    38   21   22 ar
    39   21   41 1
    40   22   23 ar
    41   22   42 1
    42   23   24 ar
    43   23   43 1
    44   24   25 1
    45   25   26 2
@<TRIPOS>MOLECULE
ZINC00405999
   43    45     0     0     0
SMALL
USER_CHARGES

@<TRIPOS>ATOM
      1 C1          0.4986    9.3455    1.7456 C.3       1 <0>        -0.2061
      2 C2          0.4099    7.8289    1.5643 C.3       1 <0>        -0.1306
      3 C3         -1.0592    7.4021    1.5491 C.3       1 <0>        -0.2192
      4 C4          1.0695    7.4339    0.2414 C.3       1 <0>         0.0287
      5 H1          0.5122    7.8710   -0.5871 H         1 <0>         0.1360
      6 C5          1.0710    5.9327    0.1094 C.2       1 <0>         0.2909
      7 O1          2.0790    5.3036    0.3526 O.2       1 <0>        -0.3258
      8 N1         -0.0477    5.2893   -0.2791 N.am      1 <0>        -0.3252
      9 C6         -0.0724    3.8909   -0.3187 C.ar      1 <0>         0.0735
     10 C7         -0.8348    3.2356   -1.2777 C.ar      1 <0>        -0.1717
     11 C8         -0.8595    1.8552   -1.3165 C.ar      1 <0>        -0.0990
     12 C9         -0.1269    1.1222   -0.4019 C.ar      1 <0>        -0.1704
     13 C10         0.6322    1.7714    0.5614 C.ar      1 <0>         0.0894
     14 C11         0.6641    3.1567    0.5999 C.ar      1 <0>        -0.1547
     15 O2          1.3476    1.0494    1.4635 O.3       1 <0>        -0.2906
     16 N2          2.4485    7.9277    0.2168 N.am      1 <0>        -0.3085
     17 C12         3.3959    7.5849    1.1082 C.2       1 <0>         0.3647
     18 O3          3.2459    6.8282    2.0462 O.2       1 <0>        -0.2750
     19 C13         4.6507    8.2809    0.7533 C.ar      1 <0>        -0.1237
     20 C14         5.9264    8.3116    1.2932 C.ar      1 <0>        -0.0612
     21 C15         6.9038    9.0972    0.7027 C.ar      1 <0>        -0.1125
     22 C16         6.6144    9.8494   -0.4203 C.ar      1 <0>        -0.1169
     23 C17         5.3427    9.8286   -0.9715 C.ar      1 <0>        -0.0595
     24 C18         4.3555    9.0479   -0.3918 C.ar      1 <0>        -0.1343
     25 C19         2.9327    8.7882   -0.6969 C.2       1 <0>         0.3640
     26 O4          2.3058    9.2709   -1.6182 O.2       1 <0>        -0.3100
     27 H2         -0.0150    9.8406    0.9215 H         1 <0>         0.0788
     28 H3          0.0287    9.6268    2.6880 H         1 <0>         0.0838
     29 H4          1.5453    9.6495    1.7564 H         1 <0>         0.0792
     30 H5          0.9236    7.3338    2.3884 H         1 <0>         0.1298
     31 H6         -1.1213    6.3145    1.5101 H         1 <0>         0.0851
     32 H7         -1.5515    7.7619    2.4525 H         1 <0>         0.0915
     33 H8         -1.5516    7.8257    0.6737 H         1 <0>         0.0701
     34 H9         -0.8357    5.7956   -0.5311 H         1 <0>         0.2357
     35 H10        -1.4088    3.8060   -1.9930 H         1 <0>         0.1300
     36 H11        -1.4528    1.3475   -2.0626 H         1 <0>         0.1339
     37 H12        -0.1488    0.0430   -0.4343 H         1 <0>         0.1394
     38 H13         1.2576    3.6637    1.3464 H         1 <0>         0.1748
     39 H14         2.2478    0.8429    1.1768 H         1 <0>         0.2315
     40 H15         6.1583    7.7257    2.1703 H         1 <0>         0.1518
     41 H16         7.8983    9.1220    1.1230 H         1 <0>         0.1414
     42 H17         7.3844   10.4579   -0.8713 H         1 <0>         0.1412
     43 H18         5.1222   10.4186   -1.8488 H         1 <0>         0.1496
@<TRIPOS>BOND
     1    1    2 1
     2    1   27 1
     3    1   28 1
     4    1   29 1
     5    2    3 1
     6    2    4 1
     7    2   30 1
     8    3   31 1
     9    3   32 1
    10    3   33 1
    11    4    5 1
    12    4    6 1
    13    4   16 1
    14    6    7 2
    15    6    8 am
    16    8    9 1
    17    8   34 1
    18    9   14 ar
    19    9   10 ar
    20   10   11 ar
    21   10   35 1
    22   11   12 ar
    23   11   36 1
    24   12   13 ar
    25   12   37 1
    26   13   14 ar
    27   13   15 1
    28   14   38 1
    29   15   39 1
    30   16   25 am
    31   16   17 am
    32   17   18 2
    33   17   19 1
    34   19   24 ar
    35   19   20 ar
    36   20   21 ar
    37   20   40 1
    38   21   22 ar
    39   21   41 1
    40   22   23 ar
    41   22   42 1
    42   23   24 ar
    43   23   43 1
    44   24   25 1
    45   25   26 2
@<TRIPOS>MOLECULE
ZINC00406639
   41    43     0     0     0
SMALL
USER_CHARGES

@<TRIPOS>ATOM
      1 C1          1.0932   -0.8738    0.6421 C.3       1 <0>        -0.1720
      2 C2          2.3844   -0.1348    0.4018 C.ar      1 <0>        -0.0537
      3 C3          3.5855   -0.8161    0.4251 C.ar      1 <0>        -0.1222
      4 C4          4.7712   -0.1376    0.2107 C.ar      1 <0>        -0.1233
      5 C5          4.7581    1.2235   -0.0332 C.ar      1 <0>        -0.1237
      6 C6          3.5598    1.9095   -0.0639 C.ar      1 <0>        -0.0829
      7 C7          2.3673    1.2310    0.1509 C.ar      1 <0>         0.0496
      8 N1          1.1516    1.9231    0.1204 N.am      1 <0>        -0.3222
      9 C8          0.1452    1.4833   -0.6607 C.2       1 <0>         0.3120
     10 O1          0.3146    0.5265   -1.3867 O.2       1 <0>        -0.3398
     11 C9         -1.1887    2.1841   -0.6369 C.3       1 <0>        -0.3075
     12 S1         -2.3195    1.3685   -1.7911 S.3       1 <0>         0.3245
     13 C10        -3.7565    2.3630   -1.5658 C.2       1 <0>        -0.1369
     14 N2         -4.9394    2.2051   -2.2013 N.pl3     1 <0>        -0.1794
     15 H1         -5.1575    1.5293   -2.8621 H         1 <0>         0.2838
     16 N3         -5.7909    3.2096   -1.7141 N.2       1 <0>        -0.0935
     17 C11        -5.0990    3.9081   -0.8425 C.2       1 <0>         0.0007
     18 N4         -3.8643    3.3919   -0.7545 N.2       1 <0>        -0.2520
     19 C12        -5.6018    5.0771   -0.0797 C.ar      1 <0>         0.0328
     20 C13        -4.7802    5.7471    0.8312 C.ar      1 <0>        -0.1553
     21 C14        -5.2862    6.8329    1.5160 C.ar      1 <0>        -0.0532
     22 N5         -6.5292    7.2329    1.3276 N.ar      1 <0>        -0.1587
     23 C15        -7.3386    6.6253    0.4813 C.ar      1 <0>        -0.0507
     24 C16        -6.9117    5.5347   -0.2480 C.ar      1 <0>        -0.1601
     25 C17         3.5463    3.3926   -0.3308 C.3       1 <0>        -0.1757
     26 H2          0.7735   -1.3565   -0.2814 H         1 <0>         0.1145
     27 H3          1.2449   -1.6291    1.4132 H         1 <0>         0.0765
     28 H4          0.3272   -0.1703    0.9683 H         1 <0>         0.0729
     29 H5          3.5991   -1.8791    0.6153 H         1 <0>         0.1351
     30 H6          5.7096   -0.6718    0.2342 H         1 <0>         0.1312
     31 H7          5.6858    1.7505   -0.2002 H         1 <0>         0.1330
     32 H8          1.0331    2.7194    0.6615 H         1 <0>         0.2343
     33 H9         -1.6038    2.1410    0.3701 H         1 <0>         0.1385
     34 H10        -1.0574    3.2253   -0.9315 H         1 <0>         0.1386
     35 H11        -3.7632    5.4221    0.9940 H         1 <0>         0.1534
     36 H12        -4.6577    7.3596    2.2188 H         1 <0>         0.1617
     37 H13        -8.3490    6.9863    0.3580 H         1 <0>         0.1632
     38 H14        -7.5796    5.0421   -0.9391 H         1 <0>         0.1548
     39 H15         3.6211    3.9323    0.6132 H         1 <0>         0.0819
     40 H16         4.3914    3.6549   -0.9673 H         1 <0>         0.0886
     41 H17         2.6167    3.6632   -0.8314 H         1 <0>         0.0813
@<TRIPOS>BOND
     1    1    2 1
     2    1   26 1
     3    1   27 1
     4    1   28 1
     5    2    7 ar
     6    2    3 ar
     7    3    4 ar
     8    3   29 1
     9    4    5 ar
    10    4   30 1
    11    5    6 ar
    12    5   31 1
    13    6    7 ar
    14    6   25 1
    15    7    8 1
    16    8    9 am
    17    8   32 1
    18    9   10 2
    19    9   11 1
    20   11   12 1
    21   11   33 1
    22   11   34 1
    23   12   13 1
    24   13   18 2
    25   13   14 1
    26   14   15 1
    27   14   16 1
    28   16   17 2
    29   17   18 1
    30   17   19 1
    31   19   24 ar
    32   19   20 ar
    33   20   21 ar
    34   20   35 1
    35   21   22 ar
    36   21   36 1
    37   22   23 ar
    38   23   24 ar
    39   23   37 1
    40   24   38 1
    41   25   39 1
    42   25   40 1
    43   25   41 1
@<TRIPOS>MOLECULE
ZINC00408342
   40    43     0     0     0
SMALL
USER_CHARGES

@<TRIPOS>ATOM
      1 C1          2.9453    7.5290    1.6818 C.3       1 <0>        -0.1785
      2 C2          2.0090    8.2561    0.7513 C.2       1 <0>        -0.1057
      3 C3          1.0342    7.5736    0.0774 C.2       1 <0>         0.0647
      4 N1          0.1941    8.2740   -0.7598 N.pl3     1 <0>        -0.1361
      5 C4         -0.8522    7.9229   -1.5529 C.2       1 <0>         0.0861
      6 N2         -1.2874    9.0198   -2.1364 N.2       1 <0>        -0.1068
      7 N3         -0.5868   10.0320   -1.7638 N.2       1 <0>        -0.0201
      8 C5          0.3472    9.6392   -0.9117 C.2       1 <0>        -0.0330
      9 N4          1.3068   10.2883   -0.2516 N.2       1 <0>        -0.0372
     10 C6          2.1309    9.6483    0.5595 C.2       1 <0>        -0.0066
     11 C7          3.1848   10.3990    1.2776 C.2       1 <0>         0.3680
     12 O1          4.0031    9.8043    1.9496 O.2       1 <0>        -0.3555
     13 O2          3.2366   11.7420    1.1857 O.3       1 <0>        -0.2309
     14 C8          4.2972   12.4123    1.9165 C.3       1 <0>        -0.0547
     15 N5         -1.3661    6.6448   -1.7178 N.pl3     1 <0>        -0.3957
     16 C9          0.8814    6.1157    0.2484 C.ar      1 <0>        -0.0759
     17 C10         0.9744    5.2675   -0.8708 C.ar      1 <0>        -0.1242
     18 C11         0.8379    3.9240   -0.7386 C.ar      1 <0>        -0.1143
     19 C12         0.5991    3.3616    0.5292 C.ar      1 <0>        -0.0268
     20 C13         0.4535    1.9737    0.6899 C.ar      1 <0>        -0.1190
     21 C14         0.2227    1.4581    1.9288 C.ar      1 <0>        -0.1121
     22 C15         0.1222    2.2873    3.0443 C.ar      1 <0>        -0.1201
     23 C16         0.2634    3.6360    2.9289 C.ar      1 <0>        -0.1098
     24 C17         0.5027    4.2052    1.6650 C.ar      1 <0>        -0.0443
     25 C18         0.6469    5.5919    1.5101 C.ar      1 <0>        -0.0738
     26 H1          3.8751    7.3046    1.1592 H         1 <0>         0.1050
     27 H2          3.1573    8.1567    2.5473 H         1 <0>         0.1246
     28 H3          2.4806    6.5999    2.0118 H         1 <0>         0.0830
     29 H4          4.2244   13.4882    1.7572 H         1 <0>         0.1113
     30 H5          4.1990   12.1951    2.9801 H         1 <0>         0.0813
     31 H6          5.2643   12.0569    1.5609 H         1 <0>         0.0831
     32 H7         -1.0634    5.9228   -1.1452 H         1 <0>         0.2402
     33 H8         -2.0281    6.4733   -2.4057 H         1 <0>         0.2508
     34 H9          1.1572    5.6913   -1.8472 H         1 <0>         0.1466
     35 H10         0.9126    3.2859   -1.6067 H         1 <0>         0.1420
     36 H11         0.5247    1.3184   -0.1655 H         1 <0>         0.1376
     37 H12         0.1113    0.3905    2.0481 H         1 <0>         0.1345
     38 H13        -0.0658    1.8530    4.0151 H         1 <0>         0.1351
     39 H14         0.1877    4.2664    3.8026 H         1 <0>         0.1381
     40 H15         0.5761    6.2458    2.3667 H         1 <0>         0.1490
@<TRIPOS>BOND
     1    1    2 1
     2    1   26 1
     3    1   27 1
     4    1   28 1
     5    2   10 1
     6    2    3 2
     7    3    4 1
     8    3   16 1
     9    4    8 1
    10    4    5 1
    11    5    6 2
    12    5   15 1
    13    6    7 1
    14    7    8 2
    15    8    9 1
    16    9   10 2
    17   10   11 1
    18   11   12 2
    19   11   13 1
    20   13   14 1
    21   14   29 1
    22   14   30 1
    23   14   31 1
    24   15   32 1
    25   15   33 1
    26   16   25 ar
    27   16   17 ar
    28   17   18 ar
    29   17   34 1
    30   18   19 ar
    31   18   35 1
    32   19   24 ar
    33   19   20 ar
    34   20   21 ar
    35   20   36 1
    36   21   22 ar
    37   21   37 1
    38   22   23 ar
    39   22   38 1
    40   23   24 ar
    41   23   39 1
    42   24   25 ar
    43   25   40 1
@<TRIPOS>MOLECULE
ZINC00414317
   39    41     0     0     0
SMALL
USER_CHARGES

@<TRIPOS>ATOM
      1 C1          1.3753    0.0882   -5.1257 C.3       1 <0>        -0.2102
      2 C2          1.1038    1.5777   -4.9058 C.3       1 <0>        -0.1273
      3 C3         -0.3816    1.8069   -4.7965 C.ar      1 <0>        -0.1078
      4 C4         -1.1082    2.1763   -5.9117 C.ar      1 <0>        -0.1076
      5 C5         -2.4712    2.3858   -5.8124 C.ar      1 <0>        -0.1425
      6 C6         -3.1116    2.2263   -4.5970 C.ar      1 <0>        -0.1125
      7 C7         -2.3918    1.8525   -3.4794 C.ar      1 <0>        -0.1328
      8 C8         -1.0215    1.6464   -3.5747 C.ar      1 <0>         0.0626
      9 N1         -0.2884    1.2723   -2.4431 N.am      1 <0>        -0.3135
     10 C9         -0.7433    1.5820   -1.2128 C.2       1 <0>         0.3149
     11 O1         -1.7339    2.2706   -1.0880 O.2       1 <0>        -0.3428
     12 C10        -0.0210    1.0728    0.0079 C.3       1 <0>        -0.3078
     13 S1         -0.8690    1.6547    1.4973 S.3       1 <0>         0.3250
     14 C11         0.1572    0.9340    2.7350 C.2       1 <0>        -0.1315
     15 N2         -0.0284    1.0624    4.0849 N.pl3     1 <0>        -0.1868
     16 H1         -0.7582    1.5762    4.5359 H         1 <0>         0.2741
     17 C12         0.9740    0.3545    4.7073 C.ar      1 <0>         0.0730
     18 C13         1.7643   -0.1889    3.6812 C.ar      1 <0>        -0.1686
     19 N3          1.2168    0.1987    2.5020 N.2       1 <0>        -0.1705
     20 C14         2.8775   -0.9650    4.0418 C.ar      1 <0>         0.1998
     21 N4          3.1306   -1.1485    5.3337 N.ar      1 <0>        -0.2845
     22 C15         2.3585   -0.6171    6.2635 C.ar      1 <0>         0.0619
     23 N5          1.3048    0.1172    5.9717 N.ar      1 <0>        -0.2431
     24 N6          3.6939   -1.5264    3.0729 N.pl3     1 <0>        -0.2750
     25 H2          2.4497   -0.0776   -5.2047 H         1 <0>         0.0756
     26 H3          0.9808   -0.4811   -4.2840 H         1 <0>         0.0675
     27 H4          0.8887   -0.2380   -6.0449 H         1 <0>         0.0843
     28 H5          1.4983    2.1471   -5.7474 H         1 <0>         0.0949
     29 H6          1.5904    1.9039   -3.9866 H         1 <0>         0.0823
     30 H7         -0.6110    2.3012   -6.8623 H         1 <0>         0.1321
     31 H8         -3.0371    2.6742   -6.6859 H         1 <0>         0.1300
     32 H9         -4.1766    2.3900   -4.5229 H         1 <0>         0.1344
     33 H10        -2.8932    1.7238   -2.5315 H         1 <0>         0.1697
     34 H11         0.5471    0.7901   -2.5441 H         1 <0>         0.2387
     35 H12        -0.0127   -0.0171   -0.0031 H         1 <0>         0.1389
     36 H13         1.0039    1.4440    0.0049 H         1 <0>         0.1416
     37 H14         2.6000   -0.7906    7.3018 H         1 <0>         0.2009
     38 H15         3.1546   -2.1423    2.4986 H         1 <0>         0.1792
     39 H16         4.4601   -2.0607    3.3344 H         1 <0>         0.1836
@<TRIPOS>BOND
     1    1    2 1
     2    1   25 1
     3    1   26 1
     4    1   27 1
     5    2    3 1
     6    2   28 1
     7    2   29 1
     8    3    8 ar
     9    3    4 ar
    10    4    5 ar
    11    4   30 1
    12    5    6 ar
    13    5   31 1
    14    6    7 ar
    15    6   32 1
    16    7    8 ar
    17    7   33 1
    18    8    9 1
    19    9   10 am
    20    9   34 1
    21   10   11 2
    22   10   12 1
    23   12   13 1
    24   12   35 1
    25   12   36 1
    26   13   14 1
    27   14   19 2
    28   14   15 1
    29   15   16 1
    30   15   17 1
    31   17   23 ar
    32   17   18 ar
    33   18   19 1
    34   18   20 ar
    35   20   21 ar
    36   20   24 1
    37   21   22 ar
    38   22   23 ar
    39   22   37 1
    40   24   38 1
    41   24   39 1
@<TRIPOS>MOLECULE
ZINC00414335
   37    40     0     0     0
SMALL
USER_CHARGES

@<TRIPOS>ATOM
      1 C1         -0.7509   -2.2782   -0.0038 C.ar      1 <0>        -0.1506
      2 C2          0.5626   -2.7108   -0.0187 C.ar      1 <0>        -0.0930
      3 C3          1.5941   -1.7965   -0.0237 C.ar      1 <0>        -0.1748
      4 C4          1.3214   -0.4272   -0.0129 C.ar      1 <0>         0.0541
      5 C5          0.0021   -0.0041    0.0020 C.ar      1 <0>        -0.1232
      6 C6         -1.0288   -0.9242    0.0065 C.ar      1 <0>        -0.0836
      7 C7         -0.0184    1.5079    0.0103 C.3       1 <0>        -0.1309
      8 C8          1.4640    1.9152   -0.0016 C.3       1 <0>        -0.0069
      9 N1          2.2090    0.6534   -0.0155 N.am      1 <0>        -0.2684
     10 C9          3.5526    0.5495   -0.0282 C.2       1 <0>         0.3315
     11 O1          4.2382    1.5501   -0.0290 O.2       1 <0>        -0.3415
     12 C10         4.2032   -0.8097   -0.0414 C.3       1 <0>        -0.3070
     13 S1          6.0029   -0.6171   -0.0567 S.3       1 <0>         0.3161
     14 C11         6.4917   -2.3099   -0.0702 C.2       1 <0>        -0.1287
     15 N2          7.7854   -2.7559   -0.0898 N.pl3     1 <0>        -0.1867
     16 H1          8.6077   -2.1869   -0.1011 H         1 <0>         0.2742
     17 C12         7.7465   -4.1314   -0.0911 C.ar      1 <0>         0.0727
     18 C13         6.3871   -4.4842   -0.0813 C.ar      1 <0>        -0.1679
     19 N3          5.6712   -3.3318   -0.0688 N.2       1 <0>        -0.1731
     20 C14         6.0560   -5.8487   -0.0860 C.ar      1 <0>         0.1994
     21 N4          7.0419   -6.7401   -0.0994 N.ar      1 <0>        -0.2844
     22 C15         8.3064   -6.3604   -0.1082 C.ar      1 <0>         0.0614
     23 N5          8.6631   -5.0927   -0.1043 N.ar      1 <0>        -0.2429
     24 N6          4.7317   -6.2568   -0.0773 N.pl3     1 <0>        -0.2754
     25 H2         -1.5575   -2.9965   -0.0007 H         1 <0>         0.1350
     26 H3          0.7808   -3.7685   -0.0268 H         1 <0>         0.1379
     27 H4          2.6177   -2.1408   -0.0357 H         1 <0>         0.1506
     28 H5         -2.0540   -0.5847    0.0178 H         1 <0>         0.1333
     29 H6         -0.5238    1.8862   -0.8783 H         1 <0>         0.1041
     30 H7         -0.5067    1.8766    0.9124 H         1 <0>         0.1036
     31 H8          1.6891    2.4971   -0.8954 H         1 <0>         0.1035
     32 H9          1.7062    2.4874    0.8939 H         1 <0>         0.1030
     33 H10         3.9047   -1.3641    0.8483 H         1 <0>         0.1459
     34 H11         3.8886   -1.3545   -0.9316 H         1 <0>         0.1498
     35 H12         9.0766   -7.1174   -0.1194 H         1 <0>         0.2007
     36 H13         4.2811   -5.9088    0.7448 H         1 <0>         0.1789
     37 H14         4.5155   -7.2023   -0.0806 H         1 <0>         0.1834
@<TRIPOS>BOND
     1    1    6 ar
     2    1    2 ar
     3    1   25 1
     4    2    3 ar
     5    2   26 1
     6    3    4 ar
     7    3   27 1
     8    4    9 1
     9    4    5 ar
    10    5    6 ar
    11    5    7 1
    12    6   28 1
    13    7    8 1
    14    7   29 1
    15    7   30 1
    16    8    9 1
    17    8   31 1
    18    8   32 1
    19    9   10 am
    20   10   11 2
    21   10   12 1
    22   12   13 1
    23   12   33 1
    24   12   34 1
    25   13   14 1
    26   14   19 2
    27   14   15 1
    28   15   16 1
    29   15   17 1
    30   17   23 ar
    31   17   18 ar
    32   18   19 1
    33   18   20 ar
    34   20   21 ar
    35   20   24 1
    36   21   22 ar
    37   22   23 ar
    38   22   35 1
    39   24   36 1
    40   24   37 1
@<TRIPOS>MOLECULE
ZINC00414336
   40    43     0     0     0
SMALL
USER_CHARGES

@<TRIPOS>ATOM
      1 C1          2.8994   -1.3959   -2.8376 C.ar      1 <0>        -0.1456
      2 C2          2.6565   -0.7674   -1.6298 C.ar      1 <0>        -0.1130
      3 C3          1.5811    0.0887   -1.5034 C.ar      1 <0>        -0.1589
      4 C4          0.7432    0.3183   -2.5889 C.ar      1 <0>         0.0690
      5 C5          0.9843   -0.3130   -3.7999 C.ar      1 <0>        -0.1081
      6 C6          2.0617   -1.1755   -3.9177 C.ar      1 <0>        -0.1121
      7 C7          0.1042   -0.0787   -4.9992 C.3       1 <0>        -0.1171
      8 C8         -1.2589    0.4604   -4.5659 C.3       1 <0>        -0.1769
      9 C9         -1.0443    1.6649   -3.6400 C.3       1 <0>        -0.0242
     10 N1         -0.3457    1.1882   -2.4385 N.am      1 <0>        -0.2673
     11 C10        -0.7416    1.5850   -1.2129 C.2       1 <0>         0.3239
     12 O1         -0.1180    1.2379   -0.2322 O.2       1 <0>        -0.3492
     13 C11        -1.9591    2.4600   -1.0609 C.3       1 <0>        -0.3047
     14 S1         -2.3154    2.6978    0.6977 S.3       1 <0>         0.3221
     15 C12        -3.7418    3.7260    0.5845 C.2       1 <0>        -0.1302
     16 N2         -4.4466    4.2153    1.6508 N.pl3     1 <0>        -0.1868
     17 H1         -4.2471    4.0527    2.6171 H         1 <0>         0.2742
     18 C13        -5.4803    4.9721    1.1486 C.ar      1 <0>         0.0730
     19 C14        -5.3694    4.9064   -0.2500 C.ar      1 <0>        -0.1685
     20 N3         -4.2913    4.1331   -0.5335 N.2       1 <0>        -0.1720
     21 C15        -6.3166    5.5964   -1.0235 C.ar      1 <0>         0.1994
     22 N4         -7.2712    6.2774   -0.3976 N.ar      1 <0>        -0.2844
     23 C16        -7.3351    6.3100    0.9207 C.ar      1 <0>         0.0617
     24 N5         -6.4688    5.6784    1.6856 N.ar      1 <0>        -0.2428
     25 N6         -6.2579    5.5676   -2.4077 N.pl3     1 <0>        -0.2754
     26 H2          3.7401   -2.0665   -2.9365 H         1 <0>         0.1284
     27 H3          3.3072   -0.9464   -0.7866 H         1 <0>         0.1338
     28 H4          1.3902    0.5800   -0.5608 H         1 <0>         0.1990
     29 H5          2.2553   -1.6683   -4.8590 H         1 <0>         0.1301
     30 H6         -0.0340   -1.0190   -5.5330 H         1 <0>         0.0958
     31 H7          0.5827    0.6431   -5.6610 H         1 <0>         0.0916
     32 H8         -1.8064   -0.3169   -4.0329 H         1 <0>         0.1005
     33 H9         -1.8246    0.7712   -5.4443 H         1 <0>         0.0938
     34 H10        -2.0074    2.0929   -3.3618 H         1 <0>         0.1008
     35 H11        -0.4384    2.4169   -4.1455 H         1 <0>         0.0955
     36 H12        -1.7721    3.4271   -1.5277 H         1 <0>         0.1398
     37 H13        -2.8121    1.9827   -1.5432 H         1 <0>         0.1415
     38 H14        -8.1273    6.8751    1.3892 H         1 <0>         0.2009
     39 H15        -5.3845    5.9477   -2.7123 H         1 <0>         0.1789
     40 H16        -6.9180    6.0483   -2.9313 H         1 <0>         0.1835
@<TRIPOS>BOND
     1    1    6 ar
     2    1    2 ar
     3    1   26 1
     4    2    3 ar
     5    2   27 1
     6    3    4 ar
     7    3   28 1
     8    4   10 1
     9    4    5 ar
    10    5    6 ar
    11    5    7 1
    12    6   29 1
    13    7    8 1
    14    7   30 1
    15    7   31 1
    16    8    9 1
    17    8   32 1
    18    8   33 1
    19    9   10 1
    20    9   34 1
    21    9   35 1
    22   10   11 am
    23   11   12 2
    24   11   13 1
    25   13   14 1
    26   13   36 1
    27   13   37 1
    28   14   15 1
    29   15   20 2
    30   15   16 1
    31   16   17 1
    32   16   18 1
    33   18   24 ar
    34   18   19 ar
    35   19   20 1
    36   19   21 ar
    37   21   22 ar
    38   21   25 1
    39   22   23 ar
    40   23   24 ar
    41   23   38 1
    42   25   39 1
    43   25   40 1
@<TRIPOS>MOLECULE
ZINC00414337
   40    43     0     0     0
SMALL
USER_CHARGES

@<TRIPOS>ATOM
      1 C1          6.0693    6.7635    1.2269 C.3       1 <0>        -0.2305
      2 C2          6.3730    5.9499   -0.0327 C.3       1 <0>         0.0407
      3 H1          6.1391    6.5310   -0.9247 H         1 <0>         0.1127
      4 C3          7.8493    5.5209   -0.0444 C.3       1 <0>        -0.1280
      5 C4          7.8065    4.0094   -0.0521 C.ar      1 <0>        -0.1217
      6 C5          8.8238    3.0743   -0.0678 C.ar      1 <0>        -0.0832
      7 C6          8.5260    1.7245   -0.0730 C.ar      1 <0>        -0.1496
      8 C7          7.2063    1.3112   -0.0619 C.ar      1 <0>        -0.0950
      9 C8          6.1883    2.2404   -0.0454 C.ar      1 <0>        -0.1774
     10 C9          6.4811    3.6056   -0.0410 C.ar      1 <0>         0.0557
     11 N1          5.6096    4.6991   -0.0263 N.am      1 <0>        -0.2656
     12 C10         4.2645    4.6149   -0.0139 C.2       1 <0>         0.3336
     13 O1          3.5937    5.6254   -0.0020 O.2       1 <0>        -0.3430
     14 C11         3.5939    3.2653   -0.0147 C.3       1 <0>        -0.3080
     15 S1          1.7973    3.4843    0.0036 S.3       1 <0>         0.3178
     16 C12         1.2836    1.7989   -0.0005 C.2       1 <0>        -0.1241
     17 N2         -0.0166    1.3718    0.0096 N.pl3     1 <0>        -0.1865
     18 H2         -0.8305    1.9527    0.0205 H         1 <0>         0.2744
     19 C13         0.0021   -0.0041    0.0020 C.ar      1 <0>         0.0774
     20 C14         1.3562   -0.3768   -0.0129 C.ar      1 <0>        -0.2052
     21 N3          2.0889    0.7650   -0.0138 N.2       1 <0>        -0.1895
     22 C15         1.6670   -1.7460   -0.0228 C.ar      1 <0>         0.2073
     23 N4          0.6680   -2.6229   -0.0180 N.ar      1 <0>        -0.2526
     24 C16        -0.5907   -2.2246   -0.0043 C.ar      1 <0>         0.0638
     25 N5         -0.9286   -0.9518    0.0058 N.ar      1 <0>        -0.2460
     26 N6          2.9851   -2.1735   -0.0372 N.pl3     1 <0>        -0.2806
     27 H3          6.3431    6.1840    2.1086 H         1 <0>         0.0828
     28 H4          6.6434    7.6899    1.2083 H         1 <0>         0.0841
     29 H5          5.0050    6.9964    1.2613 H         1 <0>         0.1093
     30 H6          8.3606    5.8822    0.8479 H         1 <0>         0.1067
     31 H7          8.3444    5.8918   -0.9418 H         1 <0>         0.1035
     32 H8          9.8538    3.3988   -0.0765 H         1 <0>         0.1340
     33 H9          9.3219    0.9946   -0.0860 H         1 <0>         0.1356
     34 H10         6.9725    0.2568   -0.0656 H         1 <0>         0.1347
     35 H11         5.1598    1.9110   -0.0364 H         1 <0>         0.1470
     36 H12         3.9009    2.7066    0.8694 H         1 <0>         0.1451
     37 H13         3.8839    2.7161   -0.9105 H         1 <0>         0.1477
     38 H14        -1.3721   -2.9702   -0.0008 H         1 <0>         0.2033
     39 H15         3.1643   -2.7289    0.7749 H         1 <0>         0.1783
     40 H16         3.7056   -1.5240   -0.0406 H         1 <0>         0.1911
@<TRIPOS>BOND
     1    1    2 1
     2    1   27 1
     3    1   28 1
     4    1   29 1
     5    2    3 1
     6    2   11 1
     7    2    4 1
     8    4    5 1
     9    4   30 1
    10    4   31 1
    11    5   10 ar
    12    5    6 ar
    13    6    7 ar
    14    6   32 1
    15    7    8 ar
    16    7   33 1
    17    8    9 ar
    18    8   34 1
    19    9   10 ar
    20    9   35 1
    21   10   11 1
    22   11   12 am
    23   12   13 2
    24   12   14 1
    25   14   15 1
    26   14   36 1
    27   14   37 1
    28   15   16 1
    29   16   21 2
    30   16   17 1
    31   17   18 1
    32   17   19 1
    33   19   25 ar
    34   19   20 ar
    35   20   21 1
    36   20   22 ar
    37   22   23 ar
    38   22   26 1
    39   23   24 ar
    40   24   25 ar
    41   24   38 1
    42   26   39 1
    43   26   40 1
@<TRIPOS>MOLECULE
ZINC00414338
   40    43     0     0     0
SMALL
USER_CHARGES

@<TRIPOS>ATOM
      1 C1         -0.0187    1.5258    0.0104 C.3       1 <0>        -0.2303
      2 C2          0.0021   -0.0041    0.0020 C.3       1 <0>         0.0404
      3 H1         -1.0150   -0.3955    0.0221 H         1 <0>         0.1121
      4 C3          0.8011   -0.5332    1.2042 C.3       1 <0>        -0.1277
      5 C4          1.9434   -1.3105    0.5897 C.ar      1 <0>        -0.1223
      6 C5          2.9829   -2.0081    1.1748 C.ar      1 <0>        -0.0845
      7 C6          3.9199   -2.6487    0.3860 C.ar      1 <0>        -0.1507
      8 C7          3.8149   -2.5900   -0.9918 C.ar      1 <0>        -0.0937
      9 C8          2.7797   -1.8954   -1.5798 C.ar      1 <0>        -0.1748
     10 C9          1.8293   -1.2457   -0.7897 C.ar      1 <0>         0.0543
     11 N1          0.7129   -0.4963   -1.1811 N.am      1 <0>        -0.2661
     12 C10         0.3455   -0.2618   -2.4564 C.2       1 <0>         0.3338
     13 O1         -0.6420    0.4023   -2.6907 O.2       1 <0>        -0.3447
     14 C11         1.1617   -0.8246   -3.5913 C.3       1 <0>        -0.3072
     15 S1          0.4177   -0.3391   -5.1683 S.3       1 <0>         0.3152
     16 C12         1.5409   -1.1090   -6.2865 C.2       1 <0>        -0.1285
     17 N2          1.4500   -1.0620   -7.6512 N.pl3     1 <0>        -0.1868
     18 H2          0.7448   -0.5916   -8.1816 H         1 <0>         0.2741
     19 C13         2.5074   -1.7811   -8.1592 C.ar      1 <0>         0.0726
     20 C14         3.2269   -2.2550   -7.0498 C.ar      1 <0>        -0.1678
     21 N3          2.5927   -1.8083   -5.9368 N.2       1 <0>        -0.1729
     22 C15         4.3731   -3.0311   -7.2852 C.ar      1 <0>         0.1993
     23 N4          4.7226   -3.2802   -8.5432 N.ar      1 <0>        -0.2844
     24 C16         4.0143   -2.8128   -9.5546 C.ar      1 <0>         0.0613
     25 N5          2.9330   -2.0812   -9.3811 N.ar      1 <0>        -0.2430
     26 N6          5.1231   -3.5256   -6.2301 N.pl3     1 <0>        -0.2754
     27 H3          1.0039    1.9031    0.0027 H         1 <0>         0.0829
     28 H4         -0.5459    1.8868   -0.8726 H         1 <0>         0.1088
     29 H5         -0.5289    1.8773    0.9072 H         1 <0>         0.0833
     30 H6          1.1826    0.2950    1.8014 H         1 <0>         0.1059
     31 H7          0.1801   -1.1888    1.8146 H         1 <0>         0.1032
     32 H8          3.0636   -2.0526    2.2508 H         1 <0>         0.1331
     33 H9          4.7317   -3.1939    0.8444 H         1 <0>         0.1347
     34 H10         4.5463   -3.0905   -1.6090 H         1 <0>         0.1375
     35 H11         2.7032   -1.8537   -2.6563 H         1 <0>         0.1500
     36 H12         2.1788   -0.4367   -3.5347 H         1 <0>         0.1459
     37 H13         1.1830   -1.9120   -3.5192 H         1 <0>         0.1497
     38 H14         4.3331   -3.0391  -10.5614 H         1 <0>         0.2007
     39 H15         5.4643   -2.7647   -5.6782 H         1 <0>         0.1789
     40 H16         5.9130   -4.0606   -6.4053 H         1 <0>         0.1834
@<TRIPOS>BOND
     1    1    2 1
     2    1   27 1
     3    1   28 1
     4    1   29 1
     5    2    3 1
     6    2   11 1
     7    2    4 1
     8    4    5 1
     9    4   30 1
    10    4   31 1
    11    5   10 ar
    12    5    6 ar
    13    6    7 ar
    14    6   32 1
    15    7    8 ar
    16    7   33 1
    17    8    9 ar
    18    8   34 1
    19    9   10 ar
    20    9   35 1
    21   10   11 1
    22   11   12 am
    23   12   13 2
    24   12   14 1
    25   14   15 1
    26   14   36 1
    27   14   37 1
    28   15   16 1
    29   16   21 2
    30   16   17 1
    31   17   18 1
    32   17   19 1
    33   19   25 ar
    34   19   20 ar
    35   20   21 1
    36   20   22 ar
    37   22   23 ar
    38   22   26 1
    39   23   24 ar
    40   24   25 ar
    41   24   38 1
    42   26   39 1
    43   26   40 1
@<TRIPOS>MOLECULE
ZINC00415281
   41    43     0     0     0
SMALL
USER_CHARGES

@<TRIPOS>ATOM
      1 C1          3.2619   13.3298    0.7978 C.3       1 <0>        -0.1305
      2 C2          2.6851   11.9438    0.6661 C.2       1 <0>        -0.0713
      3 N1          1.4205   11.6366    0.5984 N.2       1 <0>        -0.0848
      4 N2          1.2795   10.3644    0.4845 N.2       1 <0>        -0.1120
      5 C3          2.4564    9.7823    0.4828 C.2       1 <0>        -0.2257
      6 N3          3.3928   10.7732    0.5950 N.pl3     1 <0>        -0.1095
      7 C4          4.7867   10.6221    0.6292 C.ar      1 <0>         0.0256
      8 C5          5.4958   10.9675    1.7715 C.ar      1 <0>        -0.1159
      9 C6          6.8680   10.8131    1.8040 C.ar      1 <0>        -0.1207
     10 C7          7.5366   10.3249    0.6965 C.ar      1 <0>        -0.1150
     11 C8          6.8335    9.9849   -0.4446 C.ar      1 <0>        -0.1180
     12 C9          5.4606   10.1321   -0.4811 C.ar      1 <0>        -0.1108
     13 S1          2.7703    8.0533    0.3530 S.3       1 <0>         0.3269
     14 C10         1.0734    7.4330    0.2451 C.3       1 <0>        -0.3132
     15 C11         1.0944    5.9310    0.1238 C.2       1 <0>         0.3173
     16 O1          2.1525    5.3383    0.1115 O.2       1 <0>        -0.3444
     17 N4         -0.0627    5.2464    0.0290 N.am      1 <0>        -0.3190
     18 C12        -0.0485    3.8473    0.0138 C.ar      1 <0>         0.1014
     19 C13        -1.0747    3.1348    0.6220 C.ar      1 <0>        -0.2158
     20 C14        -1.0616    1.7535    0.6076 C.ar      1 <0>        -0.0660
     21 C15        -0.0290    1.0758   -0.0117 C.ar      1 <0>        -0.2230
     22 C16         1.0027    1.7823   -0.6176 C.ar      1 <0>         0.1358
     23 C17         0.9898    3.1702   -0.6089 C.ar      1 <0>        -0.2075
     24 N5          2.0492    1.0966   -1.2385 N.pl3     1 <0>        -0.4175
     25 H1          3.4353   13.7469   -0.1941 H         1 <0>         0.0994
     26 H2          2.5622   13.9644    1.3416 H         1 <0>         0.1115
     27 H3          4.2055   13.2805    1.3413 H         1 <0>         0.0875
     28 H4          4.9746   11.3532    2.6353 H         1 <0>         0.1447
     29 H5          7.4198   11.0779    2.6939 H         1 <0>         0.1396
     30 H6          8.6100   10.2085    0.7228 H         1 <0>         0.1369
     31 H7          7.3583    9.6041   -1.3083 H         1 <0>         0.1409
     32 H8          4.9119    9.8661   -1.3725 H         1 <0>         0.1498
     33 H9          0.5849    7.8614   -0.6301 H         1 <0>         0.1370
     34 H10         0.5248    7.7173    1.1430 H         1 <0>         0.1402
     35 H11        -0.9052    5.7235   -0.0287 H         1 <0>         0.2366
     36 H12        -1.8833    3.6615    1.1070 H         1 <0>         0.1275
     37 H13        -1.8601    1.2021    1.0817 H         1 <0>         0.1298
     38 H14        -0.0215   -0.0041   -0.0210 H         1 <0>         0.1282
     39 H15         1.7883    3.7218   -1.0827 H         1 <0>         0.1627
     40 H16         2.0561    0.1267   -1.2468 H         1 <0>         0.2187
     41 H17         2.7691    1.5904   -1.6613 H         1 <0>         0.2226
@<TRIPOS>BOND
     1    1    2 1
     2    1   25 1
     3    1   26 1
     4    1   27 1
     5    2    6 1
     6    2    3 2
     7    3    4 1
     8    4    5 2
     9    5    6 1
    10    5   13 1
    11    6    7 1
    12    7   12 ar
    13    7    8 ar
    14    8    9 ar
    15    8   28 1
    16    9   10 ar
    17    9   29 1
    18   10   11 ar
    19   10   30 1
    20   11   12 ar
    21   11   31 1
    22   12   32 1
    23   13   14 1
    24   14   15 1
    25   14   33 1
    26   14   34 1
    27   15   16 2
    28   15   17 am
    29   17   18 1
    30   17   35 1
    31   18   23 ar
    32   18   19 ar
    33   19   20 ar
    34   19   36 1
    35   20   21 ar
    36   20   37 1
    37   21   22 ar
    38   21   38 1
    39   22   23 ar
    40   22   24 1
    41   23   39 1
    42   24   40 1
    43   24   41 1
@<TRIPOS>MOLECULE
ZINC00416710
   45    47     0     0     0
SMALL
USER_CHARGES

@<TRIPOS>ATOM
      1 C1          4.6657    2.7120   -4.7657 C.3       1 <0>        -0.1789
      2 C2          4.0247    1.3722   -5.0213 C.ar      1 <0>        -0.0211
      3 C3          4.1134    0.7936   -6.2559 C.ar      1 <0>        -0.1649
      4 C4          3.5262   -0.4398   -6.5017 C.ar      1 <0>        -0.0752
      5 C5          2.8424   -1.1044   -5.5062 C.ar      1 <0>        -0.1366
      6 C6          2.7386   -0.5348   -4.2417 C.ar      1 <0>         0.1070
      7 C7          3.3356    0.7165   -3.9963 C.ar      1 <0>        -0.1205
      8 C8          3.2208    1.3078   -2.6618 C.2       1 <0>        -0.0470
      9 C9          2.5409    0.6257   -1.7074 C.2       1 <0>        -0.1894
     10 C10         1.9654   -0.6285   -2.0037 C.2       1 <0>         0.3248
     11 O1          1.3624   -1.2270   -1.1297 O.2       1 <0>        -0.3259
     12 N1          2.0611   -1.1774   -3.2274 N.am      1 <0>        -0.2849
     13 H1          1.6347   -2.0645   -3.4043 H         1 <0>         0.2547
     14 C11         2.4045    1.2060   -0.3233 C.3       1 <0>         0.0526
     15 N2          1.1336    1.9272   -0.2192 N.am      1 <0>        -0.3352
     16 C12         1.0699    3.3514   -0.5567 C.3       1 <0>        -0.0114
     17 C13         1.2492    4.1851    0.7136 C.3       1 <0>        -0.0228
     18 O2          2.5628    3.9791    1.2371 O.3       1 <0>        -0.3597
     19 C14         0.0231    1.2806    0.1871 C.2       1 <0>         0.3747
     20 O3          0.0548    0.0796    0.3807 O.2       1 <0>        -0.3030
     21 C15        -1.2251    2.0234    0.3900 C.2       1 <0>        -0.1127
     22 C16        -2.4435    1.4805    0.6819 C.2       1 <0>        -0.1318
     23 C17        -3.3463    2.5498    0.7901 C.2       1 <0>        -0.2277
     24 C18        -2.6482    3.6842    0.5625 C.2       1 <0>        -0.0940
     25 O4         -1.3695    3.3633    0.3267 O.3       1 <0>        -0.0635
     26 C19         2.2094   -2.4428   -5.7872 C.3       1 <0>        -0.1714
     27 H2          5.6890    2.5652   -4.4204 H         1 <0>         0.0920
     28 H3          4.6731    3.2930   -5.6879 H         1 <0>         0.0860
     29 H4          4.0983    3.2467   -4.0039 H         1 <0>         0.0832
     30 H5          4.6454    1.3004   -7.0475 H         1 <0>         0.1335
     31 H6          3.6056   -0.8833   -7.4832 H         1 <0>         0.1340
     32 H7          3.6675    2.2664   -2.4426 H         1 <0>         0.1425
     33 H8          3.2290    1.8935   -0.1347 H         1 <0>         0.1066
     34 H9          2.4270    0.4014    0.4118 H         1 <0>         0.1360
     35 H10         1.8627    3.5929   -1.2647 H         1 <0>         0.0959
     36 H11         0.1019    3.5756   -1.0048 H         1 <0>         0.1153
     37 H12         1.1135    5.2406    0.4777 H         1 <0>         0.0608
     38 H13         0.5107    3.8807    1.4552 H         1 <0>         0.0787
     39 H14         2.7471    4.4780    2.0447 H         1 <0>         0.2115
     40 H15        -2.6689    0.4315    0.8052 H         1 <0>         0.1778
     41 H16        -4.4006    2.4791    1.0131 H         1 <0>         0.1593
     42 H17        -3.0538    4.6851    0.5734 H         1 <0>         0.1966
     43 H18         1.1880   -2.2951   -6.1382 H         1 <0>         0.0887
     44 H19         2.7848   -2.9634   -6.5527 H         1 <0>         0.0882
     45 H20         2.1973   -3.0379   -4.8741 H         1 <0>         0.0773
@<TRIPOS>BOND
     1    1    2 1
     2    1   27 1
     3    1   28 1
     4    1   29 1
     5    2    7 ar
     6    2    3 ar
     7    3    4 ar
     8    3   30 1
     9    4    5 ar
    10    4   31 1
    11    5    6 ar
    12    5   26 1
    13    6   12 1
    14    6    7 ar
    15    7    8 1
    16    8    9 2
    17    8   32 1
    18    9   10 1
    19    9   14 1
    20   10   11 2
    21   10   12 am
    22   12   13 1
    23   14   15 1
    24   14   33 1
    25   14   34 1
    26   15   16 1
    27   15   19 am
    28   16   17 1
    29   16   35 1
    30   16   36 1
    31   17   18 1
    32   17   37 1
    33   17   38 1
    34   18   39 1
    35   19   20 2
    36   19   21 1
    37   21   25 1
    38   21   22 2
    39   22   23 1
    40   22   40 1
    41   23   24 2
    42   23   41 1
    43   24   25 1
    44   24   42 1
    45   26   43 1
    46   26   44 1
    47   26   45 1
@<TRIPOS>MOLECULE
ZINC00419224
   41    43     0     0     0
SMALL
USER_CHARGES

@<TRIPOS>ATOM
      1 C1         -9.9468   -0.8446   -6.1089 C.3       1 <0>        -0.2364
      2 C2         -9.3435    0.0889   -5.0913 C.2       1 <0>         0.3015
      3 O1         -8.1821   -0.0378   -4.7656 O.2       1 <0>        -0.3578
      4 N1        -10.0945    1.0646   -4.5432 N.am      1 <0>        -0.3280
      5 C3         -9.5642    1.8694   -3.5288 C.ar      1 <0>         0.0740
      6 C4        -10.3817    2.3200   -2.4996 C.ar      1 <0>        -0.1736
      7 C5         -9.8589    3.1144   -1.4977 C.ar      1 <0>        -0.0977
      8 C6         -8.5220    3.4636   -1.5155 C.ar      1 <0>        -0.1403
      9 C7         -7.6994    3.0160   -2.5414 C.ar      1 <0>         0.0699
     10 C8         -8.2228    2.2225   -3.5523 C.ar      1 <0>        -0.1584
     11 N2         -6.3457    3.3695   -2.5584 N.am      1 <0>        -0.3191
     12 C9         -5.6651    3.4865   -1.4010 C.2       1 <0>         0.3074
     13 O2         -6.2446    3.3679   -0.3421 O.2       1 <0>        -0.3595
     14 C10        -4.1842    3.7647   -1.4225 C.3       1 <0>        -0.2154
     15 C11        -3.6603    3.8497    0.0125 C.3       1 <0>         0.0302
     16 N3         -2.2207    4.1201   -0.0083 N.pl3     1 <0>        -0.1965
     17 C12        -1.2092    3.1895   -0.0306 C.ar      1 <0>        -0.0237
     18 C13        -1.1752    1.7992   -0.0457 C.ar      1 <0>        -0.1416
     19 C14         0.0268    1.1491   -0.0638 C.ar      1 <0>        -0.0860
     20 C15         1.2171    1.8649   -0.0778 C.ar      1 <0>        -0.1572
     21 C16         1.2109    3.2290   -0.0685 C.ar      1 <0>        -0.0465
     22 C17        -0.0081    3.9197   -0.0446 C.ar      1 <0>        -0.1230
     23 N4         -0.3255    5.2297   -0.0307 N.2       1 <0>        -0.0722
     24 N5         -1.6030    5.3796   -0.0096 N.2       1 <0>         0.0354
     25 H1        -10.9911   -0.5782   -6.2723 H         1 <0>         0.0785
     26 H2         -9.3995   -0.7615   -7.0478 H         1 <0>         0.1127
     27 H3         -9.8864   -1.8695   -5.7426 H         1 <0>         0.1163
     28 H4        -11.0027    1.2090   -4.8519 H         1 <0>         0.2332
     29 H5        -11.4269    2.0485   -2.4827 H         1 <0>         0.1293
     30 H6        -10.4962    3.4632   -0.6986 H         1 <0>         0.1366
     31 H7         -8.1162    4.0848   -0.7308 H         1 <0>         0.1642
     32 H8         -7.5863    1.8772   -4.3536 H         1 <0>         0.1646
     33 H9         -5.8970    3.5304   -3.4032 H         1 <0>         0.2359
     34 H10        -3.9993    4.7096   -1.9333 H         1 <0>         0.1207
     35 H11        -3.6710    2.9603   -1.9495 H         1 <0>         0.1150
     36 H12        -3.8452    2.9047    0.5234 H         1 <0>         0.1203
     37 H13        -4.1735    4.6540    0.5396 H         1 <0>         0.1317
     38 H14        -2.0961    1.2349   -0.0392 H         1 <0>         0.1350
     39 H15         0.0513    0.0694   -0.0719 H         1 <0>         0.1370
     40 H16         2.1582    1.3354   -0.0965 H         1 <0>         0.1374
     41 H17         2.1427    3.7749   -0.0791 H         1 <0>         0.1459
@<TRIPOS>BOND
     1    1    2 1
     2    1   25 1
     3    1   26 1
     4    1   27 1
     5    2    3 2
     6    2    4 am
     7    4    5 1
     8    4   28 1
     9    5   10 ar
    10    5    6 ar
    11    6    7 ar
    12    6   29 1
    13    7    8 ar
    14    7   30 1
    15    8    9 ar
    16    8   31 1
    17    9   10 ar
    18    9   11 1
    19   10   32 1
    20   11   12 am
    21   11   33 1
    22   12   13 2
    23   12   14 1
    24   14   15 1
    25   14   34 1
    26   14   35 1
    27   15   16 1
    28   15   36 1
    29   15   37 1
    30   16   24 1
    31   16   17 1
    32   17   22 ar
    33   17   18 ar
    34   18   19 ar
    35   18   38 1
    36   19   20 ar
    37   19   39 1
    38   20   21 ar
    39   20   40 1
    40   21   22 ar
    41   21   41 1
    42   22   23 1
    43   23   24 2
@<TRIPOS>MOLECULE
ZINC00419226
   41    43     0     0     0
SMALL
USER_CHARGES

@<TRIPOS>ATOM
      1 C1          2.0542   -0.0839   -1.4332 C.3       1 <0>        -0.2410
      2 C2          0.7016    0.5343   -1.1896 C.2       1 <0>         0.3010
      3 O1         -0.1590    0.4654   -2.0415 O.2       1 <0>        -0.3549
      4 N1          0.4482    1.1638   -0.0251 N.am      1 <0>        -0.3295
      5 C3         -0.7762    1.8167    0.1661 C.ar      1 <0>         0.0477
      6 C4         -0.8304    2.9855    0.9141 C.ar      1 <0>        -0.1464
      7 C5         -2.0362    3.6320    1.0978 C.ar      1 <0>        -0.1095
      8 C6         -3.1968    3.1072    0.5446 C.ar      1 <0>         0.0379
      9 C7         -3.1434    1.9353   -0.1986 C.ar      1 <0>        -0.1414
     10 C8         -1.9367    1.2921   -0.3875 C.ar      1 <0>        -0.1103
     11 N2         -4.4212    3.7601    0.7358 N.am      1 <0>        -0.3213
     12 C9         -4.4666    5.1062    0.7850 C.2       1 <0>         0.3056
     13 O2         -3.4390    5.7495    0.7479 O.2       1 <0>        -0.3604
     14 C10        -5.7942    5.8121    0.8862 C.3       1 <0>        -0.2155
     15 C11        -5.5660    7.3245    0.9253 C.3       1 <0>         0.0304
     16 N3         -6.8566    8.0107    1.0236 N.pl3     1 <0>        -0.1966
     17 C12        -7.5177    8.3581    2.1776 C.ar      1 <0>        -0.0244
     18 C13        -7.2424    8.2059    3.5324 C.ar      1 <0>        -0.1429
     19 C14        -8.1278    8.6738    4.4623 C.ar      1 <0>        -0.0862
     20 C15        -9.3028    9.3004    4.0670 C.ar      1 <0>        -0.1575
     21 C16        -9.5963    9.4617    2.7446 C.ar      1 <0>        -0.0454
     22 C17        -8.7050    8.9913    1.7710 C.ar      1 <0>        -0.1224
     23 N4         -8.7207    9.0048    0.4232 N.2       1 <0>        -0.0717
     24 N5         -7.6580    8.4482   -0.0415 N.2       1 <0>         0.0383
     25 H1          2.2484   -0.8432   -0.6758 H         1 <0>         0.0941
     26 H2          2.0709   -0.5437   -2.4213 H         1 <0>         0.1195
     27 H3          2.8217    0.6882   -1.3788 H         1 <0>         0.0974
     28 H4          1.1122    1.1612    0.6821 H         1 <0>         0.2315
     29 H5          0.0715    3.3912    1.3481 H         1 <0>         0.1337
     30 H6         -2.0776    4.5436    1.6755 H         1 <0>         0.1643
     31 H7         -4.0460    1.5273   -0.6291 H         1 <0>         0.1343
     32 H8         -1.8951    0.3811   -0.9661 H         1 <0>         0.1684
     33 H9         -5.2364    3.2434    0.8329 H         1 <0>         0.2338
     34 H10        -6.4070    5.5594    0.0208 H         1 <0>         0.1242
     35 H11        -6.3044    5.4980    1.7968 H         1 <0>         0.1101
     36 H12        -4.9533    7.5772    1.7906 H         1 <0>         0.1173
     37 H13        -5.0559    7.6386    0.0147 H         1 <0>         0.1349
     38 H14        -6.3313    7.7197    3.8486 H         1 <0>         0.1328
     39 H15        -7.9124    8.5548    5.5139 H         1 <0>         0.1362
     40 H16        -9.9915    9.6644    4.8150 H         1 <0>         0.1377
     41 H17       -10.5127    9.9508    2.4490 H         1 <0>         0.1465
@<TRIPOS>BOND
     1    1    2 1
     2    1   25 1
     3    1   26 1
     4    1   27 1
     5    2    3 2
     6    2    4 am
     7    4    5 1
     8    4   28 1
     9    5   10 ar
    10    5    6 ar
    11    6    7 ar
    12    6   29 1
    13    7    8 ar
    14    7   30 1
    15    8    9 ar
    16    8   11 1
    17    9   10 ar
    18    9   31 1
    19   10   32 1
    20   11   12 am
    21   11   33 1
    22   12   13 2
    23   12   14 1
    24   14   15 1
    25   14   34 1
    26   14   35 1
    27   15   16 1
    28   15   36 1
    29   15   37 1
    30   16   24 1
    31   16   17 1
    32   17   22 ar
    33   17   18 ar
    34   18   19 ar
    35   18   38 1
    36   19   20 ar
    37   19   39 1
    38   20   21 ar
    39   20   40 1
    40   21   22 ar
    41   21   41 1
    42   22   23 1
    43   23   24 2
@<TRIPOS>MOLECULE
ZINC00419360
   41    43     0     0     0
SMALL
USER_CHARGES

@<TRIPOS>ATOM
      1 C1         -1.3670   -4.7374   -0.9056 C.3       1 <0>        -0.1958
      2 C2         -0.0153   -4.2375   -0.3921 C.3       1 <0>        -0.1890
      3 C3         -0.0325   -2.7325   -0.3153 C.2       1 <0>         0.3009
      4 O1         -1.0280   -2.1201   -0.6393 O.2       1 <0>        -0.3538
      5 N1          1.0583   -2.0671    0.1136 N.am      1 <0>        -0.3298
      6 C4          1.0772   -0.6667    0.0936 C.ar      1 <0>         0.0477
      7 C5         -0.0800    0.0475    0.3754 C.ar      1 <0>        -0.1061
      8 C6         -0.0612    1.4276    0.3562 C.ar      1 <0>        -0.1097
      9 C7          1.1149    2.1019    0.0550 C.ar      1 <0>         0.0433
     10 C8          2.2720    1.3878   -0.2268 C.ar      1 <0>        -0.1435
     11 C9          2.2533    0.0076   -0.2075 C.ar      1 <0>        -0.1441
     12 N2          1.1339    3.5024    0.0356 N.am      1 <0>        -0.3262
     13 C10         0.3493    4.1989    0.8816 C.2       1 <0>         0.2742
     14 O2         -0.3021    3.6166    1.7229 O.2       1 <0>        -0.3184
     15 C11         0.2812    5.7010    0.7822 C.3       1 <0>        -0.0056
     16 N3         -0.6334    6.2171    1.8038 N.pl3     1 <0>        -0.1828
     17 C12        -1.9849    6.4271    1.6672 C.ar      1 <0>        -0.0110
     18 C13        -2.8928    6.2366    0.6309 C.ar      1 <0>        -0.1403
     19 C14        -4.2114    6.5434    0.8179 C.ar      1 <0>        -0.0841
     20 C15        -4.6555    7.0399    2.0368 C.ar      1 <0>        -0.1571
     21 C16        -3.7864    7.2303    3.0708 C.ar      1 <0>        -0.0442
     22 C17        -2.4291    6.9232    2.9052 C.ar      1 <0>        -0.1171
     23 N4         -1.3596    7.0027    3.7217 N.2       1 <0>        -0.0667
     24 N5         -0.3011    6.5998    3.1118 N.2       1 <0>         0.0495
     25 H1         -1.5541   -4.3251   -1.8972 H         1 <0>         0.0913
     26 H2         -1.3546   -5.8259   -0.9612 H         1 <0>         0.0730
     27 H3         -2.1554   -4.4174   -0.2244 H         1 <0>         0.0912
     28 H4          0.7731   -4.5575   -1.0734 H         1 <0>         0.0999
     29 H5          0.1718   -4.6498    0.5994 H         1 <0>         0.0996
     30 H6          1.8302   -2.5581    0.4361 H         1 <0>         0.2313
     31 H7         -0.9945   -0.4769    0.6100 H         1 <0>         0.1704
     32 H8         -0.9623    1.9830    0.5709 H         1 <0>         0.1632
     33 H9          3.1868    1.9122   -0.4607 H         1 <0>         0.1302
     34 H10         3.1533   -0.5478   -0.4264 H         1 <0>         0.1314
     35 H11         1.7118    3.9710   -0.5868 H         1 <0>         0.2292
     36 H12         1.2749    6.1209    0.9387 H         1 <0>         0.1315
     37 H13        -0.0812    5.9838   -0.2061 H         1 <0>         0.1189
     38 H14        -2.5559    5.8517   -0.3203 H         1 <0>         0.1295
     39 H15        -4.9142    6.3989    0.0107 H         1 <0>         0.1360
     40 H16        -5.7009    7.2776    2.1674 H         1 <0>         0.1373
     41 H17        -4.1432    7.6163    4.0142 H         1 <0>         0.1462
@<TRIPOS>BOND
     1    1    2 1
     2    1   25 1
     3    1   26 1
     4    1   27 1
     5    2    3 1
     6    2   28 1
     7    2   29 1
     8    3    4 2
     9    3    5 am
    10    5    6 1
    11    5   30 1
    12    6   11 ar
    13    6    7 ar
    14    7    8 ar
    15    7   31 1
    16    8    9 ar
    17    8   32 1
    18    9   10 ar
    19    9   12 1
    20   10   11 ar
    21   10   33 1
    22   11   34 1
    23   12   13 am
    24   12   35 1
    25   13   14 2
    26   13   15 1
    27   15   16 1
    28   15   36 1
    29   15   37 1
    30   16   24 1
    31   16   17 1
    32   17   22 ar
    33   17   18 ar
    34   18   19 ar
    35   18   38 1
    36   19   20 ar
    37   19   39 1
    38   20   21 ar
    39   20   40 1
    40   21   22 ar
    41   21   41 1
    42   22   23 1
    43   23   24 2
@<TRIPOS>MOLECULE
ZINC00419436
   41    43     0     0     0
SMALL
USER_CHARGES

@<TRIPOS>ATOM
      1 C1          2.4983    1.5487   -0.0830 C.3       1 <0>        -0.1336
      2 C2          1.0394    1.9256   -0.0571 C.2       1 <0>        -0.0906
      3 C3         -0.0142    1.0778   -0.0427 C.2       1 <0>        -0.2365
      4 C4         -1.1450    1.9370   -0.0272 C.2       1 <0>         0.0025
      5 N1         -0.6762    3.1572   -0.0243 N.2       1 <0>        -0.0785
      6 O1          0.5327    3.1670   -0.0443 O.3       1 <0>         0.0469
      7 N2         -2.4867    1.5552   -0.0140 N.am      1 <0>        -0.2869
      8 C5         -2.8155    0.2482   -0.0151 C.2       1 <0>         0.3092
      9 O2         -1.9450   -0.5961   -0.0277 O.2       1 <0>        -0.3620
     10 C6         -4.2649   -0.1642   -0.0008 C.3       1 <0>        -0.1686
     11 C7         -4.3608   -1.6912   -0.0053 C.3       1 <0>        -0.1729
     12 C8         -5.8102   -2.1036    0.0090 C.2       1 <0>         0.3000
     13 O3         -6.6808   -1.2592    0.0216 O.2       1 <0>        -0.3605
     14 N3         -6.1390   -3.4106    0.0078 N.am      1 <0>        -0.3192
     15 C9         -7.4771   -3.7939    0.1164 C.ar      1 <0>         0.0590
     16 C10        -8.4683   -3.0296   -0.4605 C.ar      1 <0>        -0.1272
     17 C11        -9.8050   -3.4028   -0.3581 C.ar      1 <0>        -0.1081
     18 C12       -10.1708   -4.5301    0.3123 C.ar      1 <0>        -0.1325
     19 C13        -9.1909   -5.3373    0.9145 C.ar      1 <0>        -0.0219
     20 C14        -7.8263   -4.9704    0.8128 C.ar      1 <0>        -0.0503
     21 C15        -6.8489   -5.7754    1.4186 C.ar      1 <0>        -0.1229
     22 C16        -7.2225   -6.9011    2.0872 C.ar      1 <0>        -0.1222
     23 C17        -8.5641   -7.2653    2.1841 C.ar      1 <0>        -0.1260
     24 C18        -9.5389   -6.5066    1.6130 C.ar      1 <0>        -0.1119
     25 H1          2.8328    1.4618   -1.1167 H         1 <0>         0.0984
     26 H2          3.0813    2.3175    0.4242 H         1 <0>         0.0955
     27 H3          2.6360    0.5941    0.4250 H         1 <0>         0.1015
     28 H4          0.0007   -0.0021   -0.0468 H         1 <0>         0.2067
     29 H5         -3.1830    2.2305   -0.0039 H         1 <0>         0.2470
     30 H6         -4.7452    0.2274    0.8959 H         1 <0>         0.1240
     31 H7         -4.7647    0.2338   -0.8839 H         1 <0>         0.1220
     32 H8         -3.8805   -2.0827   -0.9020 H         1 <0>         0.1187
     33 H9         -3.8611   -2.0892    0.8778 H         1 <0>         0.1205
     34 H10        -5.4460   -4.0850   -0.0685 H         1 <0>         0.2358
     35 H11        -8.2047   -2.1306   -0.9978 H         1 <0>         0.1638
     36 H12       -10.5648   -2.7884   -0.8183 H         1 <0>         0.1331
     37 H13       -11.2133   -4.8038    0.3808 H         1 <0>         0.1327
     38 H14        -5.8053   -5.5053    1.3514 H         1 <0>         0.1232
     39 H15        -6.4681   -7.5210    2.5488 H         1 <0>         0.1284
     40 H16        -8.8342   -8.1631    2.7202 H         1 <0>         0.1292
     41 H17       -10.5746   -6.8015    1.6956 H         1 <0>         0.1344
@<TRIPOS>BOND
     1    1    2 1
     2    1   25 1
     3    1   26 1
     4    1   27 1
     5    2    6 1
     6    2    3 2
     7    3    4 1
     8    3   28 1
     9    4    5 2
    10    4    7 1
    11    5    6 1
    12    7    8 am
    13    7   29 1
    14    8    9 2
    15    8   10 1
    16   10   11 1
    17   10   30 1
    18   10   31 1
    19   11   12 1
    20   11   32 1
    21   11   33 1
    22   12   13 2
    23   12   14 am
    24   14   15 1
    25   14   34 1
    26   15   20 ar
    27   15   16 ar
    28   16   17 ar
    29   16   35 1
    30   17   18 ar
    31   17   36 1
    32   18   19 ar
    33   18   37 1
    34   19   24 ar
    35   19   20 ar
    36   20   21 ar
    37   21   22 ar
    38   21   38 1
    39   22   23 ar
    40   22   39 1
    41   23   24 ar
    42   23   40 1
    43   24   41 1
@<TRIPOS>MOLECULE
ZINC00420138
   39    41     0     0     0
SMALL
USER_CHARGES

@<TRIPOS>ATOM
      1 C1         -3.2608    9.8739   -1.1639 C.3       1 <0>        -0.2302
      2 C2         -3.7808    9.1676    0.0897 C.3       1 <0>         0.0403
      3 H1         -3.3955    9.6539    0.9859 H         1 <0>         0.1116
      4 C3         -5.3182    9.1668    0.0994 C.3       1 <0>        -0.1279
      5 C4         -5.6981    7.7031    0.0956 C.ar      1 <0>        -0.1247
      6 C5         -6.9356    7.0883    0.1050 C.ar      1 <0>        -0.0842
      7 C6         -7.0256    5.7090    0.0997 C.ar      1 <0>        -0.1536
      8 C7         -5.8732    4.9445    0.0844 C.ar      1 <0>        -0.0976
      9 C8         -4.6367    5.5535    0.0740 C.ar      1 <0>        -0.1778
     10 C9         -4.5376    6.9463    0.0802 C.ar      1 <0>         0.0619
     11 N1         -3.3960    7.7537    0.0732 N.am      1 <0>        -0.2685
     12 C10        -2.1276    7.2983    0.0590 C.2       1 <0>         0.3325
     13 O1         -1.2019    8.0820    0.0543 O.2       1 <0>        -0.3412
     14 C11        -1.8595    5.8154    0.0490 C.3       1 <0>        -0.3220
     15 S1         -0.0729    5.5254    0.0309 S.3       1 <0>         0.3436
     16 C12        -0.0490    3.7636    0.0218 C.ar      1 <0>        -0.0035
     17 N2          1.1169    3.1341    0.0078 N.ar      1 <0>        -0.2973
     18 C13         1.1734    1.8044    0.0005 C.ar      1 <0>         0.2470
     19 C14        -0.0126    1.0758    0.0080 C.ar      1 <0>        -0.4010
     20 C15        -1.2179    1.7718    0.0173 C.ar      1 <0>         0.2465
     21 N3         -1.1974    3.1026    0.0288 N.ar      1 <0>        -0.3512
     22 N4         -2.4237    1.0880    0.0193 N.pl3     1 <0>        -0.3911
     23 N5          2.3972    1.1536   -0.0137 N.pl3     1 <0>        -0.3871
     24 H2         -3.6840    9.4003   -2.0497 H         1 <0>         0.0822
     25 H3         -3.5542   10.9233   -1.1378 H         1 <0>         0.0818
     26 H4         -2.1737    9.8013   -1.1974 H         1 <0>         0.1106
     27 H5         -5.7074    9.6629   -0.7897 H         1 <0>         0.1053
     28 H6         -5.6916    9.6542    1.0000 H         1 <0>         0.1016
     29 H7         -7.8345    7.6868    0.1170 H         1 <0>         0.1321
     30 H8         -7.9933    5.2295    0.1078 H         1 <0>         0.1328
     31 H9         -5.9424    3.8668    0.0798 H         1 <0>         0.1306
     32 H10        -3.7406    4.9507    0.0618 H         1 <0>         0.1528
     33 H11        -2.3087    5.3709   -0.8390 H         1 <0>         0.1425
     34 H12        -2.2921    5.3620    0.9408 H         1 <0>         0.1427
     35 H13         0.0021   -0.0041    0.0020 H         1 <0>         0.1369
     36 H14        -2.4312    0.1180    0.0141 H         1 <0>         0.2304
     37 H15        -3.2599    1.5794    0.0259 H         1 <0>         0.2289
     38 H16         2.4310    0.1842   -0.0186 H         1 <0>         0.2294
     39 H17         3.2198    1.6676   -0.0188 H         1 <0>         0.2350
@<TRIPOS>BOND
     1    1    2 1
     2    1   24 1
     3    1   25 1
     4    1   26 1
     5    2    3 1
     6    2   11 1
     7    2    4 1
     8    4    5 1
     9    4   27 1
    10    4   28 1
    11    5   10 ar
    12    5    6 ar
    13    6    7 ar
    14    6   29 1
    15    7    8 ar
    16    7   30 1
    17    8    9 ar
    18    8   31 1
    19    9   10 ar
    20    9   32 1
    21   10   11 1
    22   11   12 am
    23   12   13 2
    24   12   14 1
    25   14   15 1
    26   14   33 1
    27   14   34 1
    28   15   16 1
    29   16   21 ar
    30   16   17 ar
    31   17   18 ar
    32   18   19 ar
    33   18   23 1
    34   19   20 ar
    35   19   35 1
    36   20   21 ar
    37   20   22 1
    38   22   36 1
    39   22   37 1
    40   23   38 1
    41   23   39 1
@<TRIPOS>MOLECULE
ZINC00420563
   39    41     0     0     0
SMALL
USER_CHARGES

@<TRIPOS>ATOM
      1 C1         -6.7479    2.6523    0.1955 C.3       1 <0>        -0.0841
      2 N1         -6.4928    1.2126    0.2867 N.am      1 <0>        -0.2532
      3 C2         -7.5314    0.3516    0.3954 C.2       1 <0>         0.3484
      4 O1         -8.6816    0.7494    0.4193 O.2       1 <0>        -0.3441
      5 C3         -7.2184   -1.0811    0.4831 C.ar      1 <0>        -0.1896
      6 C4         -8.2167   -2.0476    0.5970 C.ar      1 <0>        -0.0477
      7 C5         -7.8701   -3.3683    0.6747 C.ar      1 <0>        -0.1581
      8 C6         -6.5365   -3.7553    0.6414 C.ar      1 <0>        -0.0883
      9 C7         -5.5381   -2.8292    0.5303 C.ar      1 <0>        -0.1300
     10 C8         -5.8601   -1.4711    0.4488 C.ar      1 <0>         0.0682
     11 N2         -4.9071   -0.5246    0.3329 N.2       1 <0>        -0.2600
     12 C9         -5.2086    0.7484    0.2611 C.2       1 <0>        -0.0142
     13 S1         -3.8964    1.9155    0.1175 S.3       1 <0>         0.3144
     14 C10        -2.4755    0.7944    0.1326 C.3       1 <0>        -0.3099
     15 C11        -1.2034    1.5941    0.0170 C.2       1 <0>         0.3161
     16 O2         -1.2526    2.8030   -0.0672 O.2       1 <0>        -0.3425
     17 N3         -0.0111    0.9658    0.0074 N.am      1 <0>        -0.3198
     18 C12         1.1726    1.7118   -0.0078 C.ar      1 <0>         0.0687
     19 C13         1.2308    2.9098   -0.7088 C.ar      1 <0>        -0.1339
     20 C14         2.3975    3.6490   -0.7189 C.ar      1 <0>        -0.0998
     21 C15         3.5131    3.1937   -0.0418 C.ar      1 <0>        -0.1645
     22 C16         3.4625    1.9949    0.6553 C.ar      1 <0>         0.0860
     23 C17         2.2915    1.2530    0.6726 C.ar      1 <0>        -0.1858
     24 O3          4.5602    1.5482    1.3203 O.3       1 <0>        -0.2892
     25 H1         -6.8580    2.9362   -0.8511 H         1 <0>         0.0952
     26 H2         -7.6631    2.8941    0.7358 H         1 <0>         0.1220
     27 H3         -5.9122    3.1979    0.6339 H         1 <0>         0.0992
     28 H4         -9.2561   -1.7555    0.6240 H         1 <0>         0.1539
     29 H5         -8.6419   -4.1186    0.7626 H         1 <0>         0.1354
     30 H6         -6.2850   -4.8037    0.7046 H         1 <0>         0.1329
     31 H7         -4.5055   -3.1446    0.5053 H         1 <0>         0.1432
     32 H8         -2.5484    0.1042   -0.7079 H         1 <0>         0.1402
     33 H9         -2.4671    0.2311    1.0657 H         1 <0>         0.1427
     34 H10         0.0264   -0.0034    0.0068 H         1 <0>         0.2359
     35 H11         0.3619    3.2655   -1.2427 H         1 <0>         0.1654
     36 H12         2.4397    4.5822   -1.2610 H         1 <0>         0.1389
     37 H13         4.4254    3.7714   -0.0555 H         1 <0>         0.1411
     38 H14         2.2502    0.3200    1.2149 H         1 <0>         0.1398
     39 H15         5.1409    0.9869    0.7884 H         1 <0>         0.2270
@<TRIPOS>BOND
     1    1    2 1
     2    1   25 1
     3    1   26 1
     4    1   27 1
     5    2   12 1
     6    2    3 am
     7    3    4 2
     8    3    5 1
     9    5   10 ar
    10    5    6 ar
    11    6    7 ar
    12    6   28 1
    13    7    8 ar
    14    7   29 1
    15    8    9 ar
    16    8   30 1
    17    9   10 ar
    18    9   31 1
    19   10   11 1
    20   11   12 2
    21   12   13 1
    22   13   14 1
    23   14   15 1
    24   14   32 1
    25   14   33 1
    26   15   16 2
    27   15   17 am
    28   17   18 1
    29   17   34 1
    30   18   23 ar
    31   18   19 ar
    32   19   20 ar
    33   19   35 1
    34   20   21 ar
    35   20   36 1
    36   21   22 ar
    37   21   37 1
    38   22   23 ar
    39   22   24 1
    40   23   38 1
    41   24   39 1
@<TRIPOS>MOLECULE
ZINC00420818
   39    41     0     0     0
SMALL
USER_CHARGES

@<TRIPOS>ATOM
      1 C1         -1.5379    4.8079    2.7342 C.3       1 <0>        -0.0595
      2 N1         -1.4186    3.3612    2.5370 N.am      1 <0>        -0.2568
      3 C2         -1.9500    2.4886    3.4733 C.2       1 <0>         0.0350
      4 C3         -1.8223    1.1197    3.2617 C.2       1 <0>        -0.1899
      5 C4         -1.1606    0.6622    2.1090 C.2       1 <0>         0.3835
      6 O1         -1.0368   -0.5328    1.9035 O.2       1 <0>        -0.3138
      7 N2         -0.6636    1.5595    1.2328 N.am      1 <0>        -0.3014
      8 C5         -0.7878    2.8804    1.4490 C.2       1 <0>         0.4180
      9 O2         -0.3233    3.6601    0.6397 O.2       1 <0>        -0.3756
     10 C6          0.0272    1.0872    0.0303 C.3       1 <0>        -0.0553
     11 N3         -2.4364    0.4981    4.3411 N.2       1 <0>        -0.0383
     12 H1         -2.8408    3.5450    5.0222 H         1 <0>         0.2469
     13 C7         -2.9032    1.4880    5.1491 C.2       1 <0>        -0.2276
     14 N4         -2.6071    2.6593    4.6211 N.pl3     1 <0>        -0.1460
     15 S1         -3.7683    1.2432    6.6644 S.3       1 <0>         0.3949
     16 C8         -4.0528    2.9647    7.1457 C.3       1 <0>        -0.3578
     17 C9         -4.8007    3.0037    8.4534 C.2       1 <0>         0.3228
     18 O3         -5.1109    1.9694    9.0057 O.2       1 <0>        -0.3252
     19 N5         -5.1249    4.1879    9.0092 N.am      1 <0>        -0.3198
     20 C10        -5.9025    4.2255   10.1719 C.ar      1 <0>         0.0510
     21 C11        -6.8163    5.2533   10.3649 C.ar      1 <0>        -0.1567
     22 C12        -7.5864    5.2844   11.5110 C.ar      1 <0>        -0.1114
     23 C13        -7.4405    4.2996   12.4708 C.ar      1 <0>        -0.1370
     24 C14        -6.5270    3.2783   12.2844 C.ar      1 <0>        -0.1100
     25 C15        -5.7580    3.2384   11.1379 C.ar      1 <0>        -0.1226
     26 H2         -0.6753    5.1708    3.2933 H         1 <0>         0.0870
     27 H3         -1.5777    5.3047    1.7648 H         1 <0>         0.1274
     28 H4         -2.4493    5.0248    3.2913 H         1 <0>         0.0697
     29 H5          0.0378   -0.0027    0.0218 H         1 <0>         0.1239
     30 H6          1.0513    1.4605    0.0294 H         1 <0>         0.0937
     31 H7         -0.4934    1.4525   -0.8549 H         1 <0>         0.0935
     32 H8         -3.0953    3.4731    7.2594 H         1 <0>         0.1149
     33 H9         -4.6405    3.4647    6.3759 H         1 <0>         0.1167
     34 H10        -4.8192    5.0141    8.6032 H         1 <0>         0.2304
     35 H11        -6.9276    6.0251    9.6177 H         1 <0>         0.1275
     36 H12        -8.3002    6.0811   11.6598 H         1 <0>         0.1332
     37 H13        -8.0409    4.3285   13.3680 H         1 <0>         0.1325
     38 H14        -6.4151    2.5109   13.0360 H         1 <0>         0.1376
     39 H15        -5.0447    2.4404   10.9929 H         1 <0>         0.1649
@<TRIPOS>BOND
     1    1    2 1
     2    1   26 1
     3    1   27 1
     4    1   28 1
     5    2    8 am
     6    2    3 1
     7    3   14 1
     8    3    4 2
     9    4    5 1
    10    4   11 1
    11    5    6 2
    12    5    7 am
    13    7    8 am
    14    7   10 1
    15    8    9 2
    16   10   29 1
    17   10   30 1
    18   10   31 1
    19   11   13 2
    20   12   14 1
    21   13   15 1
    22   13   14 1
    23   15   16 1
    24   16   17 1
    25   16   32 1
    26   16   33 1
    27   17   18 2
    28   17   19 am
    29   19   20 1
    30   19   34 1
    31   20   25 ar
    32   20   21 ar
    33   21   22 ar
    34   21   35 1
    35   22   23 ar
    36   22   36 1
    37   23   24 ar
    38   23   37 1
    39   24   25 ar
    40   24   38 1
    41   25   39 1
@<TRIPOS>MOLECULE
ZINC00420818
   40    42     0     0     0
SMALL
USER_CHARGES

@<TRIPOS>ATOM
      1 C1         -1.5379    4.8079    2.7342 C.3       1 <0>        -0.0700
      2 N1         -1.4186    3.3612    2.5370 N.am      1 <0>        -0.2445
      3 C2         -1.9500    2.4886    3.4733 C.2       1 <0>         0.1268
      4 C3         -1.8223    1.1197    3.2617 C.2       1 <0>        -0.1670
      5 C4         -1.1606    0.6622    2.1090 C.2       1 <0>         0.3704
      6 O1         -1.0368   -0.5328    1.9035 O.2       1 <0>        -0.2929
      7 N2         -0.6636    1.5595    1.2328 N.am      1 <0>        -0.2833
      8 C5         -0.7878    2.8804    1.4490 C.2       1 <0>         0.4061
      9 O2         -0.3233    3.6601    0.6397 O.2       1 <0>        -0.3031
     10 C6          0.0272    1.0872    0.0303 C.3       1 <0>        -0.0613
     11 N3         -2.4364    0.4981    4.3411 N.pl3     1 <0>        -0.0571
     12 H1         -2.5194   -0.4865    4.4947 H         1 <0>         0.3334
     13 C7         -2.9032    1.4880    5.1491 C.cat     1 <0>        -0.0904
     14 S1         -3.7683    1.2432    6.6644 S.3       1 <0>         0.4845
     15 C8         -4.0528    2.9647    7.1457 C.3       1 <0>        -0.3678
     16 C9         -4.8007    3.0037    8.4534 C.2       1 <0>         0.3207
     17 O3         -5.1109    1.9694    9.0057 O.2       1 <0>        -0.3213
     18 N4         -5.1249    4.1879    9.0092 N.am      1 <0>        -0.2966
     19 C10        -5.9025    4.2255   10.1719 C.ar      1 <0>         0.0267
     20 C11        -6.8163    5.2533   10.3649 C.ar      1 <0>        -0.1454
     21 C12        -7.5864    5.2844   11.5110 C.ar      1 <0>        -0.1052
     22 C13        -7.4405    4.2996   12.4708 C.ar      1 <0>        -0.1189
     23 C14        -6.5270    3.2783   12.2844 C.ar      1 <0>        -0.1063
     24 C15        -5.7580    3.2384   11.1379 C.ar      1 <0>        -0.1200
     25 H2         -0.6753    5.1708    3.2933 H         1 <0>         0.1095
     26 H3         -1.5777    5.3047    1.7648 H         1 <0>         0.1544
     27 H4         -2.4493    5.0248    3.2913 H         1 <0>         0.0761
     28 H5          0.0378   -0.0027    0.0218 H         1 <0>         0.1351
     29 H6          1.0513    1.4605    0.0294 H         1 <0>         0.1143
     30 H7         -0.4934    1.4525   -0.8549 H         1 <0>         0.1142
     31 H8         -3.0953    3.4731    7.2594 H         1 <0>         0.1283
     32 H9         -4.6405    3.4647    6.3759 H         1 <0>         0.1300
     33 H10        -4.8192    5.0141    8.6032 H         1 <0>         0.2332
     34 H11        -6.9276    6.0251    9.6177 H         1 <0>         0.1301
     35 H12        -8.3002    6.0811   11.6598 H         1 <0>         0.1444
     36 H13        -8.0409    4.3285   13.3680 H         1 <0>         0.1443
     37 H14        -6.4151    2.5109   13.0360 H         1 <0>         0.1457
     38 H15        -5.0447    2.4404   10.9929 H         1 <0>         0.1575
     39 N5         -2.6078    2.6621    4.6224 N.pl3     1 <0>        -0.1429
     40 H16        -2.8478    3.5715    5.0342 H         1 <0>         0.3087
@<TRIPOS>BOND
     1    1    2 1
     2    1   25 1
     3    1   26 1
     4    1   27 1
     5    2    8 am
     6    2    3 1
     7    3    4 2
     8    3   39 1
     9    4    5 1
    10    4   11 1
    11    5    6 2
    12    5    7 am
    13    7    8 am
    14    7   10 1
    15    8    9 2
    16   10   28 1
    17   10   29 1
    18   10   30 1
    19   11   12 1
    20   11   13 1
    21   13   14 1
    22   13   39 2
    23   14   15 1
    24   15   16 1
    25   15   31 1
    26   15   32 1
    27   16   17 2
    28   16   18 am
    29   18   19 1
    30   18   33 1
    31   19   24 ar
    32   19   20 ar
    33   20   21 ar
    34   20   34 1
    35   21   22 ar
    36   21   35 1
    37   22   23 ar
    38   22   36 1
    39   23   24 ar
    40   23   37 1
    41   24   38 1
    42   39   40 1
@<TRIPOS>MOLECULE
ZINC00420818
   45    47     0     0     0
SMALL
USER_CHARGES

@<TRIPOS>ATOM
      1 C1          7.8955    4.7014   -0.5253 C.3       1 <0>        -0.0595
      2 N1          8.5623    3.6845    0.2915 N.am      1 <0>        -0.2564
      3 C2          7.8328    2.6281    0.8137 C.2       1 <0>         0.0326
      4 C3          8.4896    1.6801    1.5914 C.2       1 <0>        -0.1897
      5 C4          9.8711    1.8131    1.8146 C.2       1 <0>         0.3828
      6 O1         10.4679    0.9913    2.4884 O.2       1 <0>        -0.3122
      7 N2         10.5284    2.8627    1.2796 N.am      1 <0>        -0.3015
      8 C5          9.8833    3.7770    0.5348 C.2       1 <0>         0.4184
      9 O2         10.5082    4.7103    0.0688 O.2       1 <0>        -0.3790
     10 C6         11.9671    3.0085    1.5145 C.3       1 <0>        -0.0550
     11 N3          7.5279    0.7543    1.9746 N.2       1 <0>        -0.0404
     12 H1          5.8392    2.7809    0.2563 H         1 <0>         0.2473
     13 C7          6.3508    1.1646    1.4297 C.2       1 <0>        -0.2259
     14 N4          6.5482    2.2762    0.7488 N.pl3     1 <0>        -0.1456
     15 S1          4.8041    0.3393    1.6064 S.3       1 <0>         0.3924
     16 C8          3.7450    1.4472    0.6436 C.3       1 <0>        -0.3575
     17 C9          2.3312    0.9256    0.6543 C.2       1 <0>         0.3215
     18 O3          2.0658   -0.0948    1.2538 O.2       1 <0>        -0.3413
     19 N5          1.3617    1.5929   -0.0024 N.am      1 <0>        -0.3815
     20 C10        -0.0127    1.0858    0.0080 C.3       1 <0>         0.0401
     21 C11        -0.7288    1.5792    1.2668 C.3       1 <0>        -0.1739
     22 C12        -2.1642    1.0497    1.2777 C.3       1 <0>        -0.1566
     23 C13        -2.9042    1.5565    0.0381 C.3       1 <0>        -0.1629
     24 C14        -2.1881    1.0631   -1.2207 C.3       1 <0>        -0.1539
     25 C15        -0.7527    1.5927   -1.2315 C.3       1 <0>        -0.1718
     26 H2          7.5362    5.5053    0.1172 H         1 <0>         0.0869
     27 H3          8.6015    5.1045   -1.2514 H         1 <0>         0.1268
     28 H4          7.0526    4.2511   -1.0495 H         1 <0>         0.0699
     29 H5         12.1300    3.5964    2.4178 H         1 <0>         0.0887
     30 H6         12.4171    2.0233    1.6360 H         1 <0>         0.1134
     31 H7         12.4246    3.5145    0.6643 H         1 <0>         0.1083
     32 H8          4.1071    1.4944   -0.3834 H         1 <0>         0.1131
     33 H9          3.7677    2.4444    1.0831 H         1 <0>         0.1137
     34 H10         1.5740    2.4089   -0.4819 H         1 <0>         0.2195
     35 H11         0.0021   -0.0041    0.0020 H         1 <0>         0.1257
     36 H12        -0.2017    1.2182    2.1499 H         1 <0>         0.1017
     37 H13        -0.7436    2.6691    1.2728 H         1 <0>         0.0797
     38 H14        -2.6744    1.4012    2.1745 H         1 <0>         0.0865
     39 H15        -2.1494   -0.0402    1.2717 H         1 <0>         0.0888
     40 H16        -2.9190    2.6464    0.0441 H         1 <0>         0.0813
     41 H17        -3.9268    1.1792    0.0459 H         1 <0>         0.0850
     42 H18        -2.7153    1.4241   -2.1037 H         1 <0>         0.0852
     43 H19        -2.1733   -0.0268   -1.2266 H         1 <0>         0.0880
     44 H20        -0.7675    2.6825   -1.2255 H         1 <0>         0.0815
     45 H21        -0.2425    1.2411   -2.1283 H         1 <0>         0.0859
@<TRIPOS>BOND
     1    1    2 1
     2    1   26 1
     3    1   27 1
     4    1   28 1
     5    2    8 am
     6    2    3 1
     7    3   14 1
     8    3    4 2
     9    4    5 1
    10    4   11 1
    11    5    6 2
    12    5    7 am
    13    7    8 am
    14    7   10 1
    15    8    9 2
    16   10   29 1
    17   10   30 1
    18   10   31 1
    19   11   13 2
    20   12   14 1
    21   13   15 1
    22   13   14 1
    23   15   16 1
    24   16   17 1
    25   16   32 1
    26   16   33 1
    27   17   18 2
    28   17   19 am
    29   19   20 1
    30   19   34 1
    31   20   25 1
    32   20   21 1
    33   20   35 1
    34   21   22 1
    35   21   36 1
    36   21   37 1
    37   22   23 1
    38   22   38 1
    39   22   39 1
    40   23   24 1
    41   23   40 1
    42   23   41 1
    43   24   25 1
    44   24   42 1
    45   24   43 1
    46   25   44 1
    47   25   45 1
@<TRIPOS>MOLECULE
ZINC00422916
   39    41     0     0     0
SMALL
USER_CHARGES

@<TRIPOS>ATOM
      1 C1         -0.0157    1.3058    0.0092 C.2       1 <0>        -0.1892
      2 C2          0.0021   -0.0041    0.0020 C.2       1 <0>        -0.1975
      3 C3          1.3172   -0.7397   -0.0145 C.3       1 <0>         0.0206
      4 N1          1.3674   -1.6756    1.1115 N.am      1 <0>        -0.2973
      5 C4          0.9130   -2.9365    0.9454 C.2       1 <0>         0.3520
      6 O1          0.4642   -3.3018   -0.1237 O.2       1 <0>        -0.3302
      7 C5          0.9748   -3.8598    2.0959 C.ar      1 <0>        -0.1707
      8 C6          0.5246   -5.1747    2.0008 C.ar      1 <0>        -0.0349
      9 C7          0.5994   -6.0031    3.0986 C.ar      1 <0>        -0.1551
     10 C8          1.1252   -5.5297    4.3043 C.ar      1 <0>        -0.0608
     11 C9          1.5772   -4.2162    4.4067 C.ar      1 <0>        -0.1300
     12 C10         1.5039   -3.3781    3.3055 C.ar      1 <0>         0.0975
     13 N2          1.9430   -2.0627    3.3658 N.am      1 <0>        -0.3050
     14 H1          2.3181   -1.7049    4.2209 H         1 <0>         0.2769
     15 C11         1.8692   -1.2651    2.2867 C.2       1 <0>         0.4070
     16 O2          2.2696   -0.1210    2.3804 O.2       1 <0>        -0.3764
     17 C12         1.2015   -6.4287    5.4783 C.2       1 <0>         0.3430
     18 O3          1.6576   -6.0201    6.5279 O.2       1 <0>        -0.3619
     19 N3          0.7650   -7.7003    5.3828 N.am      1 <0>        -0.3847
     20 C13         0.8405   -8.5898    6.5444 C.3       1 <0>         0.0800
     21 C14         0.2929   -9.9446    6.1760 C.2       1 <0>        -0.0927
     22 C15         1.0037  -10.9707    5.6747 C.2       1 <0>        -0.1906
     23 C16         0.0984  -12.0387    5.4779 C.2       1 <0>        -0.2239
     24 C17        -1.1115  -11.6013    5.8707 C.2       1 <0>        -0.0873
     25 O4         -0.9866  -10.3342    6.2980 O.3       1 <0>        -0.0506
     26 H2          0.9122    1.8585    0.0033 H         1 <0>         0.1186
     27 H3         -0.9582    1.8330    0.0166 H         1 <0>         0.1157
     28 H4         -0.9258   -0.5567    0.0079 H         1 <0>         0.1336
     29 H5          1.4134   -1.2911   -0.9498 H         1 <0>         0.1229
     30 H6          2.1349   -0.0241    0.0711 H         1 <0>         0.1222
     31 H7          0.1180   -5.5427    1.0704 H         1 <0>         0.1632
     32 H8          0.2510   -7.0229    3.0275 H         1 <0>         0.1368
     33 H9          1.9829   -3.8529    5.3393 H         1 <0>         0.1664
     34 H10         0.4009   -8.0265    4.5450 H         1 <0>         0.2324
     35 H11         1.8796   -8.6909    6.8577 H         1 <0>         0.1171
     36 H12         0.2537   -8.1707    7.3617 H         1 <0>         0.1117
     37 H13         2.0626  -10.9773    5.4627 H         1 <0>         0.1603
     38 H14         0.3331  -13.0176    5.0869 H         1 <0>         0.1595
     39 H15        -2.0271  -12.1738    5.8507 H         1 <0>         0.2015
@<TRIPOS>BOND
     1    1    2 2
     2    1   26 1
     3    1   27 1
     4    2    3 1
     5    2   28 1
     6    3    4 1
     7    3   29 1
     8    3   30 1
     9    4   15 am
    10    4    5 am
    11    5    6 2
    12    5    7 1
    13    7   12 ar
    14    7    8 ar
    15    8    9 ar
    16    8   31 1
    17    9   10 ar
    18    9   32 1
    19   10   11 ar
    20   10   17 1
    21   11   12 ar
    22   11   33 1
    23   12   13 1
    24   13   14 1
    25   13   15 am
    26   15   16 2
    27   17   18 2
    28   17   19 am
    29   19   20 1
    30   19   34 1
    31   20   21 1
    32   20   35 1
    33   20   36 1
    34   21   25 1
    35   21   22 2
    36   22   23 1
    37   22   37 1
    38   23   24 2
    39   23   38 1
    40   24   25 1
    41   24   39 1
@<TRIPOS>MOLECULE
ZINC00423393
   42    44     0     0     0
SMALL
USER_CHARGES

@<TRIPOS>ATOM
      1 C1         -2.2321    4.1612    5.1743 C.3       1 <0>        -0.0638
      2 O1         -2.6493    2.9025    4.6418 O.3       1 <0>        -0.2103
      3 C2         -2.0129    2.4640    3.5240 C.ar      1 <0>         0.1061
      4 C3         -2.3676    1.2501    2.9535 C.ar      1 <0>        -0.1612
      5 C4         -1.7195    0.8068    1.8169 C.ar      1 <0>        -0.0789
      6 C5         -0.7181    1.5718    1.2479 C.ar      1 <0>        -0.1433
      7 C6         -0.3589    2.7793    1.8178 C.ar      1 <0>        -0.0672
      8 C7         -1.0078    3.2297    2.9511 C.ar      1 <0>        -0.2230
      9 C8         -0.0127    1.0858    0.0080 C.3       1 <0>         0.0418
     10 N1         -0.7213    1.5711   -1.1789 N.pl3     1 <0>        -0.8801
     11 S1          0.0130    1.5153   -2.6621 S.o2      1 <0>         2.7624
     12 O2         -0.9259    2.0241   -3.5995 O.2       1 <0>        -0.9155
     13 O3          1.3065    2.0798   -2.4964 O.2       1 <0>        -0.9161
     14 C9          0.2527   -0.1841   -3.0611 C.ar      1 <0>        -0.7876
     15 C10        -0.7279   -0.8764   -3.7482 C.ar      1 <0>         0.0044
     16 C11        -0.5436   -2.2085   -4.0627 C.ar      1 <0>        -0.1934
     17 C12         0.6282   -2.8524   -3.6879 C.ar      1 <0>         0.1310
     18 C13         1.6106   -2.1544   -2.9983 C.ar      1 <0>        -0.1444
     19 C14         1.4230   -0.8211   -2.6915 C.ar      1 <0>         0.0028
     20 C15         2.8819   -2.8535   -2.5921 C.3       1 <0>        -0.1176
     21 C16         2.5773   -4.3139   -2.2565 C.3       1 <0>        -0.1830
     22 C17         1.7459   -4.9284   -3.3501 C.2       1 <0>         0.3089
     23 O4          1.9112   -6.0929   -3.6463 O.2       1 <0>        -0.3423
     24 N2          0.8214   -4.2008   -4.0035 N.am      1 <0>        -0.3154
     25 H1         -1.1759    4.1115    5.4391 H         1 <0>         0.0694
     26 H2         -2.3831    4.9400    4.4268 H         1 <0>         0.0699
     27 H3         -2.8190    4.3921    6.0633 H         1 <0>         0.1103
     28 H4         -3.1495    0.6521    3.3978 H         1 <0>         0.1463
     29 H5         -1.9954   -0.1379    1.3722 H         1 <0>         0.1357
     30 H6          0.4269    3.3727    1.3742 H         1 <0>         0.1392
     31 H7         -0.7300    4.1750    3.3933 H         1 <0>         0.1389
     32 H8          0.0021   -0.0041    0.0020 H         1 <0>         0.0772
     33 H9          1.0099    1.4631    0.0003 H         1 <0>         0.1029
     34 H10        -1.6205    1.9252   -1.0959 H         1 <0>         0.2497
     35 H11        -1.6390   -0.3747   -4.0390 H         1 <0>         0.1550
     36 H12        -1.3099   -2.7487   -4.5989 H         1 <0>         0.1425
     37 H13         2.1890   -0.2768   -2.1592 H         1 <0>         0.1536
     38 H14         3.5978   -2.8113   -3.4129 H         1 <0>         0.1053
     39 H15         3.3038   -2.3602   -1.7165 H         1 <0>         0.1001
     40 H16         3.5123   -4.8656   -2.1591 H         1 <0>         0.1264
     41 H17         2.0301   -4.3624   -1.3150 H         1 <0>         0.1150
     42 H18         0.2851   -4.6146   -4.6978 H         1 <0>         0.2484
@<TRIPOS>BOND
     1    1    2 1
     2    1   25 1
     3    1   26 1
     4    1   27 1
     5    2    3 1
     6    3    8 ar
     7    3    4 ar
     8    4    5 ar
     9    4   28 1
    10    5    6 ar
    11    5   29 1
    12    6    7 ar
    13    6    9 1
    14    7    8 ar
    15    7   30 1
    16    8   31 1
    17    9   10 1
    18    9   32 1
    19    9   33 1
    20   10   11 1
    21   10   34 1
    22   11   12 2
    23   11   13 2
    24   11   14 1
    25   14   19 ar
    26   14   15 ar
    27   15   16 ar
    28   15   35 1
    29   16   17 ar
    30   16   36 1
    31   17   24 1
    32   17   18 ar
    33   18   19 ar
    34   18   20 1
    35   19   37 1
    36   20   21 1
    37   20   38 1
    38   20   39 1
    39   21   22 1
    40   21   40 1
    41   21   41 1
    42   22   23 2
    43   22   24 am
    44   24   42 1
@<TRIPOS>MOLECULE
ZINC00423403
   42    44     0     0     0
SMALL
USER_CHARGES

@<TRIPOS>ATOM
      1 C1         -3.7667    6.2859    6.9740 C.3       1 <0>        -0.2118
      2 C2         -3.0577    6.7450    5.6983 C.3       1 <0>        -0.0170
      3 O1         -1.6437    6.7197    5.9037 O.3       1 <0>        -0.2124
      4 C3         -0.8611    7.1020    4.8592 C.ar      1 <0>         0.1075
      5 C4          0.5196    7.1009    4.9909 C.ar      1 <0>        -0.1599
      6 C5          1.3151    7.4894    3.9308 C.ar      1 <0>        -0.0907
      7 C6          0.7322    7.8809    2.7328 C.ar      1 <0>        -0.0107
      8 C7         -0.6504    7.8868    2.6036 C.ar      1 <0>        -0.0705
      9 C8         -1.4442    7.4925    3.6628 C.ar      1 <0>        -0.2196
     10 N1          1.5374    8.2748    1.6582 N.pl3     1 <0>        -0.8218
     11 S1          1.7584    7.2554    0.3720 S.o2      1 <0>         2.7634
     12 O2          2.6755    7.8981   -0.5027 O.2       1 <0>        -0.9158
     13 O3          0.4643    6.8456   -0.0484 O.2       1 <0>        -0.9133
     14 C9          2.5693    5.8150    0.9821 C.ar      1 <0>        -0.7838
     15 C10         3.9467    5.7988    1.1056 C.ar      1 <0>         0.0020
     16 C11         4.5858    4.6717    1.5836 C.ar      1 <0>        -0.1949
     17 C12         3.8431    3.5537    1.9399 C.ar      1 <0>         0.1315
     18 C13         2.4605    3.5732    1.8144 C.ar      1 <0>        -0.1444
     19 C14         1.8271    4.7032    1.3359 C.ar      1 <0>         0.0112
     20 C15         1.6552    2.3603    2.2018 C.3       1 <0>        -0.1176
     21 C16         2.4545    1.0936    1.8791 C.3       1 <0>        -0.1828
     22 C17         3.8515    1.2216    2.4241 C.2       1 <0>         0.3092
     23 O4          4.4158    0.2419    2.8631 O.2       1 <0>        -0.3437
     24 N2          4.4838    2.4094    2.4248 N.am      1 <0>        -0.3157
     25 H1         -3.4532    5.2710    7.2187 H         1 <0>         0.0888
     26 H2         -3.5067    6.9543    7.7948 H         1 <0>         0.0893
     27 H3         -4.8452    6.3052    6.8173 H         1 <0>         0.0884
     28 H4         -3.3711    7.7599    5.4536 H         1 <0>         0.0762
     29 H5         -3.3176    6.0766    4.8775 H         1 <0>         0.0760
     30 H6          0.9728    6.7963    5.9227 H         1 <0>         0.1478
     31 H7          2.3902    7.4885    4.0335 H         1 <0>         0.1398
     32 H8         -1.1047    8.1958    1.6738 H         1 <0>         0.1546
     33 H9         -2.5194    7.4928    3.5610 H         1 <0>         0.1420
     34 H10         1.9662    9.1448    1.6668 H         1 <0>         0.2512
     35 H11         4.5233    6.6686    0.8277 H         1 <0>         0.1509
     36 H12         5.6614    4.6596    1.6798 H         1 <0>         0.1416
     37 H13         0.7517    4.7184    1.2376 H         1 <0>         0.1587
     38 H14         1.4381    2.3943    3.2694 H         1 <0>         0.1027
     39 H15         0.7205    2.3508    1.6412 H         1 <0>         0.1029
     40 H16         2.4987    0.9543    0.7989 H         1 <0>         0.1181
     41 H17         1.9660    0.2320    2.3342 H         1 <0>         0.1253
     42 H18         5.3903    2.4723    2.7644 H         1 <0>         0.2472
@<TRIPOS>BOND
     1    1    2 1
     2    1   25 1
     3    1   26 1
     4    1   27 1
     5    2    3 1
     6    2   28 1
     7    2   29 1
     8    3    4 1
     9    4    9 ar
    10    4    5 ar
    11    5    6 ar
    12    5   30 1
    13    6    7 ar
    14    6   31 1
    15    7    8 ar
    16    7   10 1
    17    8    9 ar
    18    8   32 1
    19    9   33 1
    20   10   11 1
    21   10   34 1
    22   11   12 2
    23   11   13 2
    24   11   14 1
    25   14   19 ar
    26   14   15 ar
    27   15   16 ar
    28   15   35 1
    29   16   17 ar
    30   16   36 1
    31   17   24 1
    32   17   18 ar
    33   18   19 ar
    34   18   20 1
    35   19   37 1
    36   20   21 1
    37   20   38 1
    38   20   39 1
    39   21   22 1
    40   21   40 1
    41   21   41 1
    42   22   23 2
    43   22   24 am
    44   24   42 1
@<TRIPOS>MOLECULE
ZINC00423409
   41    43     0     0     0
SMALL
USER_CHARGES

@<TRIPOS>ATOM
      1 C1          3.9384    9.1779    1.7565 C.3       1 <0>        -0.2272
      2 C2          3.0394    7.9727    2.0395 C.3       1 <0>         0.0899
      3 H1          3.4066    7.1078    1.4870 H         1 <0>         0.0984
      4 C3          3.0555    7.6695    3.5156 C.ar      1 <0>        -0.0893
      5 C4          2.2792    8.4153    4.3828 C.ar      1 <0>        -0.1194
      6 C5          2.2906    8.1344    5.7363 C.ar      1 <0>        -0.1230
      7 C6          3.0853    7.1137    6.2237 C.ar      1 <0>        -0.1247
      8 C7          3.8657    6.3714    5.3571 C.ar      1 <0>        -0.1230
      9 C8          3.8509    6.6494    4.0031 C.ar      1 <0>        -0.1200
     10 N1          1.6695    8.2757    1.6181 N.pl3     1 <0>        -0.8771
     11 S1          1.1440    7.8151    0.1167 S.o2      1 <0>         2.7633
     12 O1          2.1351    8.2403   -0.8085 O.2       1 <0>        -0.9148
     13 O2         -0.2139    8.2223    0.0192 O.2       1 <0>        -0.9175
     14 C9          1.1453    6.0535    0.0820 C.ar      1 <0>        -0.7860
     15 C10         2.2761    5.3724   -0.3304 C.ar      1 <0>        -0.0032
     16 C11         2.2810    3.9916   -0.3586 C.ar      1 <0>        -0.1935
     17 C12         1.1480    3.2875    0.0273 C.ar      1 <0>         0.1316
     18 C13         0.0143    3.9744    0.4405 C.ar      1 <0>        -0.1433
     19 C14         0.0155    5.3551    0.4667 C.ar      1 <0>         0.0104
     20 C15        -1.2144    3.2100    0.8597 C.3       1 <0>        -0.1180
     21 C16        -1.3327    1.9346    0.0189 C.3       1 <0>        -0.1825
     22 C17        -0.0144    1.2087    0.0087 C.2       1 <0>         0.3090
     23 O3          0.0021   -0.0041    0.0020 O.2       1 <0>        -0.3431
     24 N2          1.1463    1.8895    0.0013 N.am      1 <0>        -0.3157
     25 H2          3.9268    9.3972    0.6889 H         1 <0>         0.1032
     26 H3          3.5712   10.0428    2.3091 H         1 <0>         0.0835
     27 H4          4.9577    8.9525    2.0701 H         1 <0>         0.0844
     28 H5          1.6611    9.2151    4.0025 H         1 <0>         0.1286
     29 H6          1.6807    8.7141    6.4133 H         1 <0>         0.1323
     30 H7          3.0963    6.8959    7.2815 H         1 <0>         0.1318
     31 H8          4.4866    5.5739    5.7379 H         1 <0>         0.1321
     32 H9          4.4606    6.0695    3.3261 H         1 <0>         0.1298
     33 H10         1.0702    8.7460    2.2185 H         1 <0>         0.2469
     34 H11         3.1566    5.9210   -0.6307 H         1 <0>         0.1524
     35 H12         3.1644    3.4603   -0.6807 H         1 <0>         0.1416
     36 H13        -0.8664    5.8897    0.7874 H         1 <0>         0.1552
     37 H14        -1.1363    2.9473    1.9146 H         1 <0>         0.1022
     38 H15        -2.0980    3.8290    0.7040 H         1 <0>         0.1032
     39 H16        -1.6108    2.1944   -1.0025 H         1 <0>         0.1186
     40 H17        -2.0984    1.2884    0.4480 H         1 <0>         0.1257
     41 H18         1.9875    1.4072   -0.0220 H         1 <0>         0.2473
@<TRIPOS>BOND
     1    1    2 1
     2    1   25 1
     3    1   26 1
     4    1   27 1
     5    2    3 1
     6    2    4 1
     7    2   10 1
     8    4    9 ar
     9    4    5 ar
    10    5    6 ar
    11    5   28 1
    12    6    7 ar
    13    6   29 1
    14    7    8 ar
    15    7   30 1
    16    8    9 ar
    17    8   31 1
    18    9   32 1
    19   10   11 1
    20   10   33 1
    21   11   12 2
    22   11   13 2
    23   11   14 1
    24   14   19 ar
    25   14   15 ar
    26   15   16 ar
    27   15   34 1
    28   16   17 ar
    29   16   35 1
    30   17   24 1
    31   17   18 ar
    32   18   19 ar
    33   18   20 1
    34   19   36 1
    35   20   21 1
    36   20   37 1
    37   20   38 1
    38   21   22 1
    39   21   39 1
    40   21   40 1
    41   22   23 2
    42   22   24 am
    43   24   41 1
@<TRIPOS>MOLECULE
ZINC00423412
   42    44     0     0     0
SMALL
USER_CHARGES

@<TRIPOS>ATOM
      1 C1          1.7925    6.9146    5.9664 C.3       1 <0>        -0.0640
      2 O1          2.2080    7.2640    4.6445 O.3       1 <0>        -0.2124
      3 C2          2.9477    8.3960    4.5092 C.ar      1 <0>         0.1058
      4 C3          3.2677    9.1547    5.6261 C.ar      1 <0>        -0.2217
      5 C4          4.0201   10.3045    5.4860 C.ar      1 <0>        -0.0806
      6 C5          4.4545   10.6997    4.2340 C.ar      1 <0>        -0.1673
      7 C6          4.1415    9.9427    3.1204 C.ar      1 <0>        -0.0730
      8 C7          3.3847    8.7946    3.2545 C.ar      1 <0>        -0.1303
      9 C8          3.0394    7.9727    2.0395 C.3       1 <0>         0.0472
     10 N1          1.6695    8.2757    1.6181 N.pl3     1 <0>        -0.8752
     11 S1          1.1440    7.8151    0.1167 S.o2      1 <0>         2.7638
     12 O2          2.1351    8.2403   -0.8085 O.2       1 <0>        -0.9175
     13 O3         -0.2139    8.2223    0.0192 O.2       1 <0>        -0.9188
     14 C9          1.1453    6.0535    0.0820 C.ar      1 <0>        -0.7843
     15 C10         2.2761    5.3724   -0.3304 C.ar      1 <0>        -0.0004
     16 C11         2.2810    3.9916   -0.3586 C.ar      1 <0>        -0.1933
     17 C12         1.1480    3.2875    0.0273 C.ar      1 <0>         0.1300
     18 C13         0.0143    3.9744    0.4405 C.ar      1 <0>        -0.1448
     19 C14         0.0155    5.3551    0.4667 C.ar      1 <0>         0.0102
     20 C15        -1.2144    3.2100    0.8597 C.3       1 <0>        -0.1175
     21 C16        -1.3327    1.9346    0.0189 C.3       1 <0>        -0.1826
     22 C17        -0.0144    1.2087    0.0087 C.2       1 <0>         0.3090
     23 O4          0.0021   -0.0041    0.0020 O.2       1 <0>        -0.3447
     24 N2          1.1463    1.8895    0.0013 N.am      1 <0>        -0.3157
     25 H1          1.2113    5.9932    5.9329 H         1 <0>         0.1096
     26 H2          2.6700    6.7680    6.5962 H         1 <0>         0.0702
     27 H3          1.1794    7.7162    6.3784 H         1 <0>         0.0699
     28 H4          2.9290    8.8462    6.6041 H         1 <0>         0.1372
     29 H5          4.2697   10.8952    6.3550 H         1 <0>         0.1325
     30 H6          5.0427   11.5991    4.1266 H         1 <0>         0.1349
     31 H7          4.4853   10.2513    2.1442 H         1 <0>         0.1424
     32 H8          3.1187    6.9132    2.2830 H         1 <0>         0.0891
     33 H9          3.7297    8.2122    1.2307 H         1 <0>         0.0996
     34 H10         1.0702    8.7460    2.2185 H         1 <0>         0.2499
     35 H11         3.1566    5.9210   -0.6307 H         1 <0>         0.1528
     36 H12         3.1644    3.4603   -0.6807 H         1 <0>         0.1413
     37 H13        -0.8662    5.8897    0.7881 H         1 <0>         0.1547
     38 H14        -1.1363    2.9473    1.9146 H         1 <0>         0.1006
     39 H15        -2.0980    3.8290    0.7040 H         1 <0>         0.1027
     40 H16        -1.6108    2.1944   -1.0025 H         1 <0>         0.1186
     41 H17        -2.0984    1.2884    0.4480 H         1 <0>         0.1248
     42 H18         1.9875    1.4072   -0.0220 H         1 <0>         0.2472
@<TRIPOS>BOND
     1    1    2 1
     2    1   25 1
     3    1   26 1
     4    1   27 1
     5    2    3 1
     6    3    8 ar
     7    3    4 ar
     8    4    5 ar
     9    4   28 1
    10    5    6 ar
    11    5   29 1
    12    6    7 ar
    13    6   30 1
    14    7    8 ar
    15    7   31 1
    16    8    9 1
    17    9   10 1
    18    9   32 1
    19    9   33 1
    20   10   11 1
    21   10   34 1
    22   11   12 2
    23   11   13 2
    24   11   14 1
    25   14   19 ar
    26   14   15 ar
    27   15   16 ar
    28   15   35 1
    29   16   17 ar
    30   16   36 1
    31   17   24 1
    32   17   18 ar
    33   18   19 ar
    34   18   20 1
    35   19   37 1
    36   20   21 1
    37   20   38 1
    38   20   39 1
    39   21   22 1
    40   21   40 1
    41   21   41 1
    42   22   23 2
    43   22   24 am
    44   24   42 1
@<TRIPOS>MOLECULE
ZINC00423413
   44    46     0     0     0
SMALL
USER_CHARGES

@<TRIPOS>ATOM
      1 C1          1.5301   -2.1955   -5.7514 C.3       1 <0>        -0.2040
      2 C2          0.2650   -1.3753   -5.4909 C.3       1 <0>        -0.0777
      3 C3         -0.9656   -2.2018   -5.8695 C.3       1 <0>        -0.2041
      4 C4          0.1950   -1.0100   -4.0306 C.ar      1 <0>        -0.0766
      5 C5          0.1737    0.3200   -3.6524 C.ar      1 <0>        -0.1123
      6 C6          0.1095    0.6582   -2.3149 C.ar      1 <0>        -0.1420
      7 C7          0.0664   -0.3393   -1.3491 C.ar      1 <0>         0.0460
      8 C8          0.0932   -1.6742   -1.7323 C.ar      1 <0>        -0.1582
      9 C9          0.1517   -2.0055   -3.0717 C.ar      1 <0>        -0.1066
     10 N1          0.0019   -0.0007    0.0044 N.pl3     1 <0>        -0.8142
     11 S1         -1.0793   -0.7655    0.9986 S.o2      1 <0>         2.7656
     12 O1         -0.8787   -2.1609    0.8199 O.2       1 <0>        -0.9150
     13 O2         -0.9769   -0.1377    2.2693 O.2       1 <0>        -0.9133
     14 C10        -2.6926   -0.4064    0.3881 C.ar      1 <0>        -0.7844
     15 C11        -3.3204   -1.2943   -0.4665 C.ar      1 <0>         0.0077
     16 C12        -4.5849   -1.0162   -0.9472 C.ar      1 <0>        -0.1929
     17 C13        -5.2258    0.1568   -0.5709 C.ar      1 <0>         0.1330
     18 C14        -4.5928    1.0460    0.2873 C.ar      1 <0>        -0.1448
     19 C15        -3.3306    0.7598    0.7690 C.ar      1 <0>         0.0085
     20 C16        -5.2887    2.3184    0.6953 C.3       1 <0>        -0.1173
     21 C17        -6.1471    2.8258   -0.4639 C.3       1 <0>        -0.1829
     22 C18        -6.9841    1.7016   -1.0121 C.2       1 <0>         0.3091
     23 O3         -8.1026    1.9314   -1.4211 O.2       1 <0>        -0.3427
     24 N2         -6.5062    0.4443   -1.0534 N.am      1 <0>        -0.3152
     25 H1          1.5039   -3.1044   -5.1504 H         1 <0>         0.0768
     26 H2          1.5807   -2.4597   -6.8077 H         1 <0>         0.0753
     27 H3          2.4068   -1.6066   -5.4817 H         1 <0>         0.0789
     28 H4          0.2912   -0.4663   -6.0920 H         1 <0>         0.0938
     29 H5         -1.8669   -1.6175   -5.6840 H         1 <0>         0.0768
     30 H6         -0.9150   -2.4660   -6.9258 H         1 <0>         0.0759
     31 H7         -0.9918   -3.1107   -5.2685 H         1 <0>         0.0759
     32 H8          0.2069    1.0950   -4.4038 H         1 <0>         0.1336
     33 H9          0.0926    1.6971   -2.0203 H         1 <0>         0.1329
     34 H10         0.0639   -2.4522   -0.9837 H         1 <0>         0.1769
     35 H11         0.1681   -3.0432   -3.3705 H         1 <0>         0.1387
     36 H12         0.5905    0.6824    0.3620 H         1 <0>         0.2530
     37 H13        -2.8208   -2.2062   -0.7587 H         1 <0>         0.1574
     38 H14        -5.0743   -1.7098   -1.6149 H         1 <0>         0.1426
     39 H15        -2.8399    1.4490    1.4403 H         1 <0>         0.1513
     40 H16        -5.9238    2.1239    1.5595 H         1 <0>         0.1048
     41 H17        -4.5451    3.0723    0.9535 H         1 <0>         0.1001
     42 H18        -6.7998    3.6234   -0.1090 H         1 <0>         0.1260
     43 H19        -5.5001    3.2126   -1.2512 H         1 <0>         0.1156
     44 H20        -7.0535   -0.2673   -1.4208 H         1 <0>         0.2483
@<TRIPOS>BOND
     1    1    2 1
     2    1   25 1
     3    1   26 1
     4    1   27 1
     5    2    3 1
     6    2    4 1
     7    2   28 1
     8    3   29 1
     9    3   30 1
    10    3   31 1
    11    4    9 ar
    12    4    5 ar
    13    5    6 ar
    14    5   32 1
    15    6    7 ar
    16    6   33 1
    17    7    8 ar
    18    7   10 1
    19    8    9 ar
    20    8   34 1
    21    9   35 1
    22   10   11 1
    23   10   36 1
    24   11   12 2
    25   11   13 2
    26   11   14 1
    27   14   19 ar
    28   14   15 ar
    29   15   16 ar
    30   15   37 1
    31   16   17 ar
    32   16   38 1
    33   17   24 1
    34   17   18 ar
    35   18   19 ar
    36   18   20 1
    37   19   39 1
    38   20   21 1
    39   20   40 1
    40   20   41 1
    41   21   22 1
    42   21   42 1
    43   21   43 1
    44   22   23 2
    45   22   24 am
    46   24   44 1
@<TRIPOS>MOLECULE
ZINC00423416
   42    44     0     0     0
SMALL
USER_CHARGES

@<TRIPOS>ATOM
      1 C1         -2.0612    0.0066    5.9176 C.3       1 <0>        -0.2121
      2 C2         -1.2884    1.2840    5.5831 C.3       1 <0>        -0.0148
      3 O1         -1.5454    1.6549    4.2272 O.3       1 <0>        -0.2172
      4 C3         -0.9302    2.7772    3.7668 C.ar      1 <0>         0.0763
      5 C4         -0.0977    3.5044    4.6012 C.ar      1 <0>        -0.2021
      6 C5          0.5279    4.6447    4.1315 C.ar      1 <0>        -0.1059
      7 C6          0.3251    5.0625    2.8293 C.ar      1 <0>        -0.1412
      8 C7         -0.5004    4.3396    1.9887 C.ar      1 <0>        -0.1522
      9 C8         -1.1354    3.1976    2.4545 C.ar      1 <0>         0.0378
     10 N1         -1.9757    2.4666    1.6068 N.pl3     1 <0>        -0.7998
     11 S1         -1.6118    2.3299   -0.0030 S.o2      1 <0>         2.7669
     12 O2         -1.4332    3.6519   -0.4927 O.2       1 <0>        -0.9175
     13 O3         -2.5634    1.4333   -0.5597 O.2       1 <0>        -0.9130
     14 C9         -0.0437    1.5345   -0.1169 C.ar      1 <0>        -0.7836
     15 C10         1.1140    2.2910   -0.1350 C.ar      1 <0>         0.0059
     16 C11         2.3445    1.6715   -0.2312 C.ar      1 <0>        -0.1932
     17 C12         2.4182    0.2869   -0.3080 C.ar      1 <0>         0.1325
     18 C13         1.2540   -0.4696   -0.2890 C.ar      1 <0>        -0.1451
     19 C14         0.0264    0.1556   -0.1938 C.ar      1 <0>         0.0116
     20 C15         1.3346   -1.9717   -0.3714 C.3       1 <0>        -0.1175
     21 C16         2.5138   -2.3724   -1.2585 C.3       1 <0>        -0.1827
     22 C17         3.7470   -1.6156   -0.8442 C.2       1 <0>         0.3091
     23 O4          4.8312   -2.1556   -0.9076 O.2       1 <0>        -0.3439
     24 N2          3.6608   -0.3467   -0.4047 N.am      1 <0>        -0.3155
     25 H1         -3.1287    0.1826    5.7851 H         1 <0>         0.0889
     26 H2         -1.7403   -0.7965    5.2542 H         1 <0>         0.0881
     27 H3         -1.8652   -0.2762    6.9519 H         1 <0>         0.0887
     28 H4         -0.2209    1.1081    5.7156 H         1 <0>         0.0753
     29 H5         -1.6094    2.0871    6.2465 H         1 <0>         0.0758
     30 H6          0.0632    3.1807    5.6189 H         1 <0>         0.1382
     31 H7          1.1770    5.2103    4.7836 H         1 <0>         0.1323
     32 H8          0.8161    5.9535    2.4667 H         1 <0>         0.1372
     33 H9         -0.6538    4.6658    0.9706 H         1 <0>         0.1859
     34 H10        -2.7711    2.0401    1.9622 H         1 <0>         0.2610
     35 H11         1.0555    3.3678   -0.0750 H         1 <0>         0.1541
     36 H12         3.2481    2.2628   -0.2453 H         1 <0>         0.1419
     37 H13        -0.8792   -0.4326   -0.1790 H         1 <0>         0.1548
     38 H14         1.4756   -2.3832    0.6280 H         1 <0>         0.1012
     39 H15         0.4105   -2.3621   -0.7978 H         1 <0>         0.1029
     40 H16         2.6950   -3.4425   -1.1583 H         1 <0>         0.1253
     41 H17         2.2798   -2.1419   -2.2978 H         1 <0>         0.1181
     42 H18         4.4662    0.1314   -0.1526 H         1 <0>         0.2474
@<TRIPOS>BOND
     1    1    2 1
     2    1   25 1
     3    1   26 1
     4    1   27 1
     5    2    3 1
     6    2   28 1
     7    2   29 1
     8    3    4 1
     9    4    9 ar
    10    4    5 ar
    11    5    6 ar
    12    5   30 1
    13    6    7 ar
    14    6   31 1
    15    7    8 ar
    16    7   32 1
    17    8    9 ar
    18    8   33 1
    19    9   10 1
    20   10   11 1
    21   10   34 1
    22   11   12 2
    23   11   13 2
    24   11   14 1
    25   14   19 ar
    26   14   15 ar
    27   15   16 ar
    28   15   35 1
    29   16   17 ar
    30   16   36 1
    31   17   24 1
    32   17   18 ar
    33   18   19 ar
    34   18   20 1
    35   19   37 1
    36   20   21 1
    37   20   38 1
    38   20   39 1
    39   21   22 1
    40   21   40 1
    41   21   41 1
    42   22   23 2
    43   22   24 am
    44   24   42 1
@<TRIPOS>MOLECULE
ZINC00424178
   42    45     0     0     0
SMALL
USER_CHARGES

@<TRIPOS>ATOM
      1 C1          4.8030    1.2629   -0.0374 C.ar      1 <0>        -0.1727
      2 C2          4.7670   -0.1231   -0.0436 C.ar      1 <0>        -0.0609
      3 C3          3.5613   -0.7959   -0.0357 C.ar      1 <0>        -0.1884
      4 C4          2.3740   -0.0801   -0.0210 C.ar      1 <0>         0.1053
      5 C5          2.4093    1.3251   -0.0142 C.ar      1 <0>        -0.1879
      6 C6          3.6323    1.9917   -0.0232 C.ar      1 <0>        -0.0248
      7 C7          1.1288    2.0547    0.0023 C.2       1 <0>         0.3577
      8 O1          1.1036    3.2703    0.0087 O.2       1 <0>        -0.3358
      9 N1         -0.0161    1.3380    0.0094 N.am      1 <0>        -0.2978
     10 C8          0.0021   -0.0041    0.0020 C.2       1 <0>         0.4099
     11 O2         -1.0574   -0.6004    0.0089 O.2       1 <0>        -0.3893
     12 N2          1.1415   -0.7170   -0.0122 N.am      1 <0>        -0.3050
     13 H1          1.1004   -1.7161   -0.0165 H         1 <0>         0.2732
     14 C9         -1.3025    2.0390    0.0192 C.3       1 <0>         0.0293
     15 C10        -1.7369    2.2716    1.4434 C.ar      1 <0>        -0.0941
     16 C11        -2.5144    1.3268    2.0894 C.ar      1 <0>        -0.1127
     17 C12        -2.9107    1.5310    3.3949 C.ar      1 <0>        -0.1150
     18 C13        -2.5352    2.6991    4.0604 C.ar      1 <0>        -0.1193
     19 C14        -1.7555    3.6507    3.4010 C.ar      1 <0>        -0.0739
     20 C15        -1.3612    3.4316    2.0973 C.ar      1 <0>        -0.1160
     21 C16        -2.9618    2.9275    5.4574 C.2       1 <0>         0.3508
     22 O3         -2.6336    3.9459    6.0343 O.2       1 <0>        -0.3676
     23 N3         -3.7145    2.0067    6.0913 N.am      1 <0>        -0.3587
     24 C17        -4.1373    2.2331    7.4756 C.3       1 <0>        -0.0119
     25 C18        -4.0345    1.0556    8.4471 C.3       1 <0>        -0.2345
     26 C19        -5.4052    1.5218    7.9524 C.3       1 <0>        -0.2344
     27 H2          5.7538    1.7750   -0.0440 H         1 <0>         0.1416
     28 H3          5.6910   -0.6820   -0.0551 H         1 <0>         0.1384
     29 H4          3.5432   -1.8757   -0.0406 H         1 <0>         0.1394
     30 H5          3.6635    3.0712   -0.0184 H         1 <0>         0.1606
     31 H6         -1.1981    2.9971   -0.4899 H         1 <0>         0.1250
     32 H7         -2.0498    1.4341   -0.4944 H         1 <0>         0.1255
     33 H8         -2.8079    0.4255    1.5719 H         1 <0>         0.1525
     34 H9         -3.5136    0.7906    3.8996 H         1 <0>         0.1255
     35 H10        -1.4619    4.5568    3.9102 H         1 <0>         0.1592
     36 H11        -0.7577    4.1670    1.5861 H         1 <0>         0.1538
     37 H12        -3.9764    1.1940    5.6309 H         1 <0>         0.2255
     38 H13        -3.9409    3.2300    7.8700 H         1 <0>         0.1671
     39 H14        -3.6524    0.1125    8.0564 H         1 <0>         0.1123
     40 H15        -3.7704    1.2778    9.4810 H         1 <0>         0.1187
     41 H16        -6.0428    2.0506    8.6608 H         1 <0>         0.1191
     42 H17        -5.9250    0.8857    7.2359 H         1 <0>         0.1103
@<TRIPOS>BOND
     1    1    6 ar
     2    1    2 ar
     3    1   27 1
     4    2    3 ar
     5    2   28 1
     6    3    4 ar
     7    3   29 1
     8    4   12 1
     9    4    5 ar
    10    5    6 ar
    11    5    7 1
    12    6   30 1
    13    7    8 2
    14    7    9 am
    15    9   10 am
    16    9   14 1
    17   10   11 2
    18   10   12 am
    19   12   13 1
    20   14   15 1
    21   14   31 1
    22   14   32 1
    23   15   20 ar
    24   15   16 ar
    25   16   17 ar
    26   16   33 1
    27   17   18 ar
    28   17   34 1
    29   18   19 ar
    30   18   21 1
    31   19   20 ar
    32   19   35 1
    33   20   36 1
    34   21   22 2
    35   21   23 am
    36   23   24 1
    37   23   37 1
    38   24   26 1
    39   24   25 1
    40   24   38 1
    41   25   26 1
    42   25   39 1
    43   25   40 1
    44   26   41 1
    45   26   42 1
@<TRIPOS>MOLECULE
ZINC00425636
   41    43     0     0     0
SMALL
USER_CHARGES

@<TRIPOS>ATOM
      1 C1          5.8185   14.3181    0.9607 C.3       1 <0>        -0.0662
      2 O1          4.3916   14.3828    0.9183 O.3       1 <0>        -0.1913
      3 C2          3.7237   13.2050    0.8005 C.ar      1 <0>         0.0886
      4 C3          4.4299   12.0131    0.7274 C.ar      1 <0>        -0.1924
      5 C4          3.7568   10.8154    0.6079 C.ar      1 <0>        -0.0956
      6 C5          2.3616   10.8005    0.5601 C.ar      1 <0>        -0.0246
      7 C6          1.6509   12.0003    0.6278 C.ar      1 <0>        -0.1667
      8 C7          2.3314   13.1971    0.7529 C.ar      1 <0>         0.0714
      9 O2          1.6419   14.3672    0.8238 O.3       1 <0>        -0.1937
     10 C8          0.2164   14.2846    0.7691 C.3       1 <0>        -0.0664
     11 C9          1.6388    9.5179    0.4320 C.2       1 <0>        -0.0389
     12 C10         2.1920    8.2694    0.3546 C.2       1 <0>        -0.1867
     13 C11         1.0701    7.4082    0.2418 C.2       1 <0>        -0.1731
     14 N1          0.0097    8.1790    0.2694 N.2       1 <0>        -0.0225
     15 O3          0.3064    9.3461    0.3740 O.3       1 <0>         0.0547
     16 C12         1.0922    5.9301    0.1229 C.2       1 <0>         0.3865
     17 O4          2.1528    5.3374    0.1102 O.2       1 <0>        -0.3359
     18 N2         -0.0642    5.2442    0.0290 N.am      1 <0>        -0.3130
     19 C13        -0.0487    3.8461    0.0141 C.ar      1 <0>         0.0720
     20 C14        -1.0736    3.1324    0.6233 C.ar      1 <0>        -0.1675
     21 C15        -1.0578    1.7514    0.6090 C.ar      1 <0>        -0.0996
     22 C16        -0.0235    1.0758   -0.0109 C.ar      1 <0>        -0.1689
     23 C17         1.0054    1.7832   -0.6163 C.ar      1 <0>         0.0865
     24 C18         0.9906    3.1694   -0.6087 C.ar      1 <0>        -0.1549
     25 O5          2.0246    1.1175   -1.2204 O.3       1 <0>        -0.2869
     26 H1          6.1889   13.8619    0.0427 H         1 <0>         0.0682
     27 H2          6.2252   15.3249    1.0559 H         1 <0>         0.1133
     28 H3          6.1297   13.7182    1.8158 H         1 <0>         0.0684
     29 H4          5.5093   12.0232    0.7639 H         1 <0>         0.1472
     30 H5          4.3090    9.8890    0.5508 H         1 <0>         0.1402
     31 H6          0.5717   11.9931    0.5867 H         1 <0>         0.1529
     32 H7         -0.2085   15.2862    0.8353 H         1 <0>         0.1127
     33 H8         -0.0850   13.8236   -0.1716 H         1 <0>         0.0684
     34 H9         -0.1448   13.6809    1.6017 H         1 <0>         0.0687
     35 H10         3.2382    8.0019    0.3729 H         1 <0>         0.1914
     36 H11        -0.9073    5.7205   -0.0283 H         1 <0>         0.2463
     37 H12        -1.8827    3.6579    1.1086 H         1 <0>         0.1330
     38 H13        -1.8550    1.1984    1.0833 H         1 <0>         0.1347
     39 H14        -0.0138   -0.0041   -0.0201 H         1 <0>         0.1397
     40 H15         1.7886    3.7216   -1.0826 H         1 <0>         0.1735
     41 H16         1.8704    0.9273   -2.1558 H         1 <0>         0.2265
@<TRIPOS>BOND
     1    1    2 1
     2    1   26 1
     3    1   27 1
     4    1   28 1
     5    2    3 1
     6    3    8 ar
     7    3    4 ar
     8    4    5 ar
     9    4   29 1
    10    5    6 ar
    11    5   30 1
    12    6    7 ar
    13    6   11 1
    14    7    8 ar
    15    7   31 1
    16    8    9 1
    17    9   10 1
    18   10   32 1
    19   10   33 1
    20   10   34 1
    21   11   15 1
    22   11   12 2
    23   12   13 1
    24   12   35 1
    25   13   14 2
    26   13   16 1
    27   14   15 1
    28   16   17 2
    29   16   18 am
    30   18   19 1
    31   18   36 1
    32   19   24 ar
    33   19   20 ar
    34   20   21 ar
    35   20   37 1
    36   21   22 ar
    37   21   38 1
    38   22   23 ar
    39   22   39 1
    40   23   24 ar
    41   23   25 1
    42   24   40 1
    43   25   41 1
@<TRIPOS>MOLECULE
ZINC00427775
   43    45     0     0     0
SMALL
USER_CHARGES

@<TRIPOS>ATOM
      1 C1         -3.5591   -0.9334    0.0305 C.3       1 <0>        -0.0627
      2 O1         -2.3903   -0.1112    0.0243 O.3       1 <0>        -0.2078
      3 C2         -1.1899   -0.7462    0.0089 C.ar      1 <0>         0.1203
      4 C3         -1.1335   -2.1269    0.0014 C.ar      1 <0>        -0.2257
      5 C4          0.0897   -2.7796   -0.0138 C.ar      1 <0>        -0.1353
      6 C5          1.2725   -2.0634   -0.0212 C.ar      1 <0>         0.0091
      7 C6          1.2419   -0.6701   -0.0134 C.ar      1 <0>         0.1109
      8 C7          0.0021   -0.0041    0.0020 C.ar      1 <0>        -0.1195
      9 C8         -0.0177    1.4576    0.0101 C.2       1 <0>        -0.0250
     10 C9          1.1653    2.1228    0.0023 C.2       1 <0>        -0.1792
     11 C10         2.3813    1.4094   -0.0140 C.2       1 <0>         0.3385
     12 O2          3.4324    2.0267   -0.0211 O.2       1 <0>        -0.3711
     13 N1          2.4105    0.0652   -0.0210 N.am      1 <0>        -0.2685
     14 H1          3.2910   -0.4087   -0.0319 H         1 <0>         0.2686
     15 C11         1.1792    3.6297    0.0103 C.3       1 <0>        -0.1201
     16 C12         1.3233    4.1308    1.4487 C.3       1 <0>        -0.0027
     17 N2          1.3369    5.5957    1.4564 N.am      1 <0>        -0.3813
     18 C13         1.4559    6.2624    2.6217 C.2       1 <0>         0.3897
     19 O3          1.5522    5.6475    3.6674 O.2       1 <0>        -0.3555
     20 C14         1.4695    7.7289    2.6294 C.2       1 <0>        -0.1180
     21 C15         1.5837    8.5244    3.7333 C.2       1 <0>        -0.1297
     22 C16         1.5516    9.8521    3.2790 C.2       1 <0>        -0.2329
     23 C17         1.4209    9.8094    1.9347 C.2       1 <0>        -0.0785
     24 O4          1.3771    8.5283    1.5465 O.3       1 <0>        -0.0568
     25 O5          2.4651   -2.7183   -0.0356 O.3       1 <0>        -0.2213
     26 C18         2.4209   -4.1466   -0.0430 C.3       1 <0>        -0.0581
     27 H2         -4.4475   -0.3019    0.0428 H         1 <0>         0.1123
     28 H3         -3.5692   -1.5573   -0.8632 H         1 <0>         0.0706
     29 H4         -3.5522   -1.5681    0.9166 H         1 <0>         0.0717
     30 H5         -2.0481   -2.7013    0.0070 H         1 <0>         0.1409
     31 H6          0.1190   -3.8592   -0.0195 H         1 <0>         0.1415
     32 H7         -0.9536    1.9966    0.0175 H         1 <0>         0.1565
     33 H8          2.0187    3.9884   -0.5853 H         1 <0>         0.1154
     34 H9          0.2471    4.0039   -0.4131 H         1 <0>         0.0863
     35 H10         0.4839    3.7721    2.0443 H         1 <0>         0.0914
     36 H11         2.2554    3.7566    1.8721 H         1 <0>         0.1124
     37 H12         1.2602    6.0859    0.6229 H         1 <0>         0.2299
     38 H13         1.6797    8.1957    4.7576 H         1 <0>         0.1755
     39 H14         1.6188   10.7407    3.8891 H         1 <0>         0.1599
     40 H15         1.3658   10.6669    1.2806 H         1 <0>         0.1990
     41 H16         1.9042   -4.4987    0.8499 H         1 <0>         0.0691
     42 H17         1.8879   -4.4890   -0.9300 H         1 <0>         0.0683
     43 H18         3.4368   -4.5415   -0.0544 H         1 <0>         0.1120
@<TRIPOS>BOND
     1    1    2 1
     2    1   27 1
     3    1   28 1
     4    1   29 1
     5    2    3 1
     6    3    8 ar
     7    3    4 ar
     8    4    5 ar
     9    4   30 1
    10    5    6 ar
    11    5   31 1
    12    6    7 ar
    13    6   25 1
    14    7   13 1
    15    7    8 ar
    16    8    9 1
    17    9   10 2
    18    9   32 1
    19   10   11 1
    20   10   15 1
    21   11   12 2
    22   11   13 am
    23   13   14 1
    24   15   16 1
    25   15   33 1
    26   15   34 1
    27   16   17 1
    28   16   35 1
    29   16   36 1
    30   17   18 am
    31   17   37 1
    32   18   19 2
    33   18   20 1
    34   20   24 1
    35   20   21 2
    36   21   22 1
    37   21   38 1
    38   22   23 2
    39   22   39 1
    40   23   24 1
    41   23   40 1
    42   25   26 1
    43   26   41 1
    44   26   42 1
    45   26   43 1
@<TRIPOS>MOLECULE
ZINC00429751
   39    41     0     0     0
SMALL
USER_CHARGES

@<TRIPOS>ATOM
      1 C1          3.7269   -0.7221   -0.0369 C.3       1 <0>        -0.1722
      2 C2          2.4022   -0.0039   -0.0209 C.ar      1 <0>        -0.0333
      3 C3          2.3742    1.3668   -0.0132 C.ar      1 <0>        -0.1210
      4 C4          1.1772    2.0669    0.0019 C.ar      1 <0>        -0.1275
      5 C5         -0.0165    1.3676    0.0096 C.ar      1 <0>        -0.0792
      6 C6          0.0021   -0.0041    0.0020 C.ar      1 <0>        -0.2488
      7 C7          1.2022   -0.7508   -0.0135 C.ar      1 <0>         0.0271
      8 N1          1.0558   -2.0941   -0.0189 N.2       1 <0>        -0.2676
      9 C8         -0.1223   -2.6751   -0.0104 C.2       1 <0>         0.0342
     10 S1         -1.2365   -1.2779    0.0076 S.3       1 <0>         0.2036
     11 N2         -0.4231   -4.0219   -0.0136 N.pl3     1 <0>        -0.2039
     12 N3         -1.7599   -4.4412   -0.0029 N.am      1 <0>        -0.2690
     13 C9         -2.0537   -5.7565   -0.0061 C.2       1 <0>         0.3469
     14 O1         -1.1591   -6.5789   -0.0183 O.2       1 <0>        -0.3545
     15 C10        -3.4663   -6.1995    0.0053 C.ar      1 <0>        -0.0948
     16 C11        -4.4935   -5.2550    0.0250 C.ar      1 <0>        -0.1238
     17 C12        -5.8086   -5.6671    0.0298 C.ar      1 <0>        -0.0856
     18 C13        -6.1130   -7.0295    0.0261 C.ar      1 <0>        -0.0848
     19 C14        -5.0852   -7.9741    0.0121 C.ar      1 <0>        -0.0751
     20 C15        -3.7704   -7.5615    0.0020 C.ar      1 <0>        -0.0778
     21 C16        -7.5245   -7.4721    0.0364 C.2       1 <0>         0.3444
     22 O2         -7.7892   -8.6574    0.0328 O.2       1 <0>        -0.3509
     23 O3         -8.5160   -6.5606    0.0499 O.3       1 <0>        -0.2668
     24 C17        -9.8768   -7.0670    0.0595 C.3       1 <0>        -0.0509
     25 H1          4.0367   -0.8901   -1.0683 H         1 <0>         0.0891
     26 H2          4.4753   -0.1155    0.4731 H         1 <0>         0.0757
     27 H3          3.6270   -1.6803    0.4731 H         1 <0>         0.1017
     28 H4          3.3054    1.9137   -0.0192 H         1 <0>         0.1355
     29 H5          1.1768    3.1469    0.0076 H         1 <0>         0.1372
     30 H6         -0.9571    1.8983    0.0169 H         1 <0>         0.1360
     31 H7          0.2909   -4.6784   -0.0233 H         1 <0>         0.3024
     32 H8         -2.4740   -3.7847    0.0068 H         1 <0>         0.2586
     33 H9         -4.2579   -4.2011    0.0320 H         1 <0>         0.1307
     34 H10        -6.6035   -4.9361    0.0407 H         1 <0>         0.1557
     35 H11        -5.3205   -9.0282    0.0088 H         1 <0>         0.1656
     36 H12        -2.9752   -8.2923   -0.0089 H         1 <0>         0.1672
     37 H13       -10.5757   -6.2306    0.0700 H         1 <0>         0.1058
     38 H14       -10.0461   -7.6708   -0.8321 H         1 <0>         0.0851
     39 H15       -10.0302   -7.6798    0.9478 H         1 <0>         0.0851
@<TRIPOS>BOND
     1    1    2 1
     2    1   25 1
     3    1   26 1
     4    1   27 1
     5    2    7 ar
     6    2    3 ar
     7    3    4 ar
     8    3   28 1
     9    4    5 ar
    10    4   29 1
    11    5    6 ar
    12    5   30 1
    13    6   10 1
    14    6    7 ar
    15    7    8 1
    16    8    9 2
    17    9   10 1
    18    9   11 1
    19   11   12 1
    20   11   31 1
    21   12   13 am
    22   12   32 1
    23   13   14 2
    24   13   15 1
    25   15   20 ar
    26   15   16 ar
    27   16   17 ar
    28   16   33 1
    29   17   18 ar
    30   17   34 1
    31   18   19 ar
    32   18   21 1
    33   19   20 ar
    34   19   35 1
    35   20   36 1
    36   21   22 2
    37   21   23 1
    38   23   24 1
    39   24   37 1
    40   24   38 1
    41   24   39 1
@<TRIPOS>MOLECULE
ZINC00433797
   41    43     0     0     0
SMALL
USER_CHARGES

@<TRIPOS>ATOM
      1 C1          4.2339    5.5199   -1.0307 C.3       1 <0>        -0.2130
      2 C2          4.7078    4.3899   -0.1144 C.3       1 <0>        -0.1598
      3 C3          3.8913    3.1274   -0.3976 C.3       1 <0>        -0.1071
      4 H1          3.9506    2.8842   -1.4584 H         1 <0>         0.1013
      5 C4          4.4448    1.9623    0.4278 C.3       1 <0>        -0.1555
      6 C5          3.8049    0.6503   -0.0297 C.3       1 <0>        -0.1009
      7 C6          2.2899    0.8126   -0.0152 C.2       1 <0>        -0.0649
      8 C7          1.7216    2.0380   -0.0034 C.2       1 <0>        -0.3241
      9 S1         -0.0214    1.7284    0.0115 S.3       1 <0>         0.5042
     10 C8          0.0021   -0.0041    0.0020 C.2       1 <0>        -0.1434
     11 C9          1.3578   -0.3018   -0.0124 C.2       1 <0>        -0.2342
     12 C10         1.8314   -1.6893   -0.0248 C.2       1 <0>         0.3613
     13 O1          2.0177   -2.2593   -1.0840 O.2       1 <0>        -0.3596
     14 N1          2.0605   -2.3336    1.1366 N.am      1 <0>        -0.4291
     15 N2         -1.0715   -0.8795    0.0079 N.am      1 <0>        -0.2483
     16 C11        -2.3313   -0.4009    0.0223 C.2       1 <0>         0.3581
     17 O2         -2.5255    0.7988    0.0302 O.2       1 <0>        -0.3379
     18 C12        -3.4789   -1.3367    0.0285 C.ar      1 <0>        -0.1102
     19 C13        -4.7835   -0.8436    0.0435 C.ar      1 <0>        -0.0352
     20 N3         -5.8037   -1.6824    0.0490 N.ar      1 <0>        -0.1259
     21 C14        -5.5890   -2.9862    0.0405 C.ar      1 <0>        -0.0783
     22 C15        -4.2927   -3.4800    0.0256 C.ar      1 <0>        -0.1076
     23 N4         -3.2687   -2.6502    0.0144 N.ar      1 <0>        -0.1186
     24 C16         2.4253    3.3600   -0.0040 C.3       1 <0>        -0.0691
     25 H2          4.3698    5.2251   -2.0713 H         1 <0>         0.0755
     26 H3          3.1788    5.7203   -0.8447 H         1 <0>         0.0737
     27 H4          4.8157    6.4194   -0.8290 H         1 <0>         0.0731
     28 H5          4.5719    4.6848    0.9261 H         1 <0>         0.0808
     29 H6          5.7629    4.1896   -0.3005 H         1 <0>         0.0832
     30 H7          4.2204    2.1263    1.4818 H         1 <0>         0.0849
     31 H8          5.5250    1.9044    0.2936 H         1 <0>         0.0839
     32 H9          4.0930   -0.1528    0.6486 H         1 <0>         0.0887
     33 H10         4.1373    0.4120   -1.0401 H         1 <0>         0.1043
     34 H11         1.9121   -1.8794    1.9807 H         1 <0>         0.2190
     35 H12         2.3739   -3.2516    1.1284 H         1 <0>         0.2264
     36 H13        -0.9165   -1.8370    0.0016 H         1 <0>         0.2658
     37 H14        -4.9592    0.2220    0.0508 H         1 <0>         0.1971
     38 H15        -6.4253   -3.6696    0.0454 H         1 <0>         0.1749
     39 H16        -4.1222   -4.5464    0.0187 H         1 <0>         0.1754
     40 H17         2.3779    3.8016    0.9914 H         1 <0>         0.0949
     41 H18         1.9531    4.0276   -0.7247 H         1 <0>         0.0962
@<TRIPOS>BOND
     1    1    2 1
     2    1   25 1
     3    1   26 1
     4    1   27 1
     5    2    3 1
     6    2   28 1
     7    2   29 1
     8    3    4 1
     9    3   24 1
    10    3    5 1
    11    5    6 1
    12    5   30 1
    13    5   31 1
    14    6    7 1
    15    6   32 1
    16    6   33 1
    17    7   11 1
    18    7    8 2
    19    8    9 1
    20    8   24 1
    21    9   10 1
    22   10   11 2
    23   10   15 1
    24   11   12 1
    25   12   13 2
    26   12   14 am
    27   14   34 1
    28   14   35 1
    29   15   16 am
    30   15   36 1
    31   16   17 2
    32   16   18 1
    33   18   23 ar
    34   18   19 ar
    35   19   20 ar
    36   19   37 1
    37   20   21 ar
    38   21   22 ar
    39   21   38 1
    40   22   23 ar
    41   22   39 1
    42   24   40 1
    43   24   41 1
@<TRIPOS>MOLECULE
ZINC00438112
   39    41     0     0     0
SMALL
USER_CHARGES

@<TRIPOS>ATOM
      1 C1          2.4212    7.9668    0.0183 C.3       1 <0>        -0.0694
      2 O1          1.1380    7.3380    0.0281 O.3       1 <0>        -0.1586
      3 C2          1.1168    5.9805    0.0222 C.ar      1 <0>         0.1371
      4 C3          2.3158    5.2691    0.0074 C.ar      1 <0>        -0.2107
      5 C4          2.3418    3.9102    0.0002 C.ar      1 <0>        -0.0636
      6 C5          1.1479    3.1676    0.0081 C.ar      1 <0>        -0.0730
      7 C6          1.1633    1.7624    0.0004 C.ar      1 <0>        -0.0968
      8 C7         -0.0126    1.0758    0.0080 C.ar      1 <0>        -0.1426
      9 C8         -1.2340    1.7451    0.0174 C.ar      1 <0>        -0.1072
     10 C9         -1.2856    3.1073    0.0310 C.ar      1 <0>        -0.1339
     11 C10        -0.0956    3.8450    0.0237 C.ar      1 <0>         0.0218
     12 C11        -0.1043    5.3066    0.0307 C.ar      1 <0>        -0.0965
     13 C12        -1.3720    6.0500    0.0459 C.2       1 <0>        -0.1043
     14 N1         -1.3633    7.3497    0.0516 N.2       1 <0>         0.0297
     15 N2         -2.5718    8.0582    0.0661 N.am      1 <0>        -0.3355
     16 C13        -2.5628    9.4059    0.0720 C.2       1 <0>         0.3144
     17 O2         -1.5081   10.0055    0.0648 O.2       1 <0>        -0.3005
     18 C14        -3.8627   10.1681    0.0876 C.3       1 <0>        -0.0832
     19 C15        -3.5774   11.6479    0.0915 C.2       1 <0>        -0.2293
     20 N3         -3.4271   12.4837   -0.9157 N.2       1 <0>        -0.0305
     21 N4         -3.1892   13.7101   -0.7419 N.2       1 <0>        -0.1700
     22 C16        -3.0755   14.2351    0.4709 C.2       1 <0>        -0.0308
     23 S1         -3.3540   12.7729    1.4664 S.3       1 <0>         0.1961
     24 N5         -2.8202   15.5425    0.8572 N.pl3     1 <0>        -0.3525
     25 H1          2.2952    9.0495    0.0244 H         1 <0>         0.1230
     26 H2          2.9822    7.6614    0.9015 H         1 <0>         0.0627
     27 H3          2.9648    7.6693   -0.8784 H         1 <0>         0.0642
     28 H4          3.2490    5.8126    0.0010 H         1 <0>         0.1388
     29 H5          3.2908    3.3948   -0.0121 H         1 <0>         0.1333
     30 H6          2.1028    1.2298   -0.0118 H         1 <0>         0.1323
     31 H7          0.0021   -0.0041    0.0020 H         1 <0>         0.1294
     32 H8         -2.1526    1.1772    0.0187 H         1 <0>         0.1287
     33 H9         -2.2390    3.6145    0.0432 H         1 <0>         0.1302
     34 H10        -2.3109    5.5162    0.0524 H         1 <0>         0.1125
     35 H11        -3.4151    7.5789    0.0719 H         1 <0>         0.2000
     36 H12        -4.4444    9.9126   -0.7981 H         1 <0>         0.1315
     37 H13        -4.4277    9.9047    0.9818 H         1 <0>         0.1136
     38 H14        -2.6947   16.2309    0.1855 H         1 <0>         0.2480
     39 H15        -2.7672   15.7684    1.7990 H         1 <0>         0.2415
@<TRIPOS>BOND
     1    1    2 1
     2    1   25 1
     3    1   26 1
     4    1   27 1
     5    2    3 1
     6    3   12 ar
     7    3    4 ar
     8    4    5 ar
     9    4   28 1
    10    5    6 ar
    11    5   29 1
    12    6   11 ar
    13    6    7 ar
    14    7    8 ar
    15    7   30 1
    16    8    9 ar
    17    8   31 1
    18    9   10 ar
    19    9   32 1
    20   10   11 ar
    21   10   33 1
    22   11   12 ar
    23   12   13 1
    24   13   14 2
    25   13   34 1
    26   14   15 1
    27   15   16 am
    28   15   35 1
    29   16   17 2
    30   16   18 1
    31   18   19 1
    32   18   36 1
    33   18   37 1
    34   19   23 1
    35   19   20 2
    36   20   21 1
    37   21   22 2
    38   22   23 1
    39   22   24 1
    40   24   38 1
    41   24   39 1
@<TRIPOS>MOLECULE
ZINC00444406
   42    43     0     0     0
SMALL
USER_CHARGES

@<TRIPOS>ATOM
      1 C1          8.2981    2.9348   -0.7657 C.3       1 <0>        -0.1958
      2 C2          7.2050    3.7343   -0.0538 C.3       1 <0>        -0.1891
      3 C3          5.9001    2.9850   -0.1363 C.2       1 <0>         0.3010
      4 O1          5.8494    1.9165   -0.7082 O.2       1 <0>        -0.3548
      5 N1          4.7895    3.5020    0.4255 N.am      1 <0>        -0.3292
      6 C4          3.5576    2.8544    0.2664 C.ar      1 <0>         0.0484
      7 C5          2.3912    3.5993    0.1521 C.ar      1 <0>        -0.1455
      8 C6          1.1773    2.9612   -0.0051 C.ar      1 <0>        -0.1079
      9 C7          1.1225    1.5741   -0.0491 C.ar      1 <0>         0.0387
     10 C8          2.2884    0.8290    0.0710 C.ar      1 <0>        -0.1433
     11 C9          3.5029    1.4674    0.2225 C.ar      1 <0>        -0.1107
     12 N2         -0.1087    0.9269   -0.2086 N.am      1 <0>        -0.3211
     13 C10        -1.0657    1.4797   -0.9799 C.2       1 <0>         0.3530
     14 O2         -0.8925    2.5796   -1.4688 O.2       1 <0>        -0.3474
     15 C11        -2.3238    0.7503   -1.2310 C.ar      1 <0>        -0.1784
     16 C12        -2.5224   -0.5164   -0.6747 C.ar      1 <0>        -0.0273
     17 C13        -3.6997   -1.1913   -0.9071 C.ar      1 <0>        -0.2425
     18 C14        -4.6854   -0.6195   -1.7033 C.ar      1 <0>         0.1746
     19 C15        -4.4897    0.6376   -2.2627 C.ar      1 <0>        -0.1581
     20 C16        -3.3172    1.3217   -2.0303 C.ar      1 <0>         0.0262
     21 N3         -5.5430    1.2422   -3.1089 N.pl3     1 <0>         0.5563
     22 O3         -5.3724    2.3440   -3.5991 O.2       1 <0>        -0.3590
     23 O4         -6.5802    0.6378   -3.3149 O.3       1 <0>        -0.3327
     24 O5         -5.8422   -1.2905   -1.9347 O.3       1 <0>        -0.1626
     25 C17        -5.9777   -2.5778   -1.3292 C.3       1 <0>        -0.0715
     26 H1          8.4070    1.9618   -0.2867 H         1 <0>         0.0894
     27 H2          8.0242    2.7963   -1.8116 H         1 <0>         0.0927
     28 H3          9.2420    3.4768   -0.7060 H         1 <0>         0.0732
     29 H4          7.0962    4.7073   -0.5328 H         1 <0>         0.1019
     30 H5          7.4790    3.8728    0.9921 H         1 <0>         0.0982
     31 H6          4.8431    4.3226    0.9400 H         1 <0>         0.2317
     32 H7          2.4339    4.6780    0.1859 H         1 <0>         0.1349
     33 H8          0.2702    3.5406   -0.0944 H         1 <0>         0.1672
     34 H9          2.2453   -0.2497    0.0417 H         1 <0>         0.1318
     35 H10         4.4101    0.8881    0.3114 H         1 <0>         0.1682
     36 H11        -0.2743    0.0825    0.2392 H         1 <0>         0.2294
     37 H12        -1.7551   -0.9633   -0.0600 H         1 <0>         0.1370
     38 H13        -3.8556   -2.1684   -0.4743 H         1 <0>         0.1543
     39 H14        -3.1657    2.2985   -2.4656 H         1 <0>         0.1959
     40 H15        -5.1828   -3.2327   -1.6861 H         1 <0>         0.0732
     41 H16        -5.9080   -2.4789   -0.2459 H         1 <0>         0.0726
     42 H17        -6.9456   -3.0036   -1.5937 H         1 <0>         0.1267
@<TRIPOS>BOND
     1    1    2 1
     2    1   26 1
     3    1   27 1
     4    1   28 1
     5    2    3 1
     6    2   29 1
     7    2   30 1
     8    3    4 2
     9    3    5 am
    10    5    6 1
    11    5   31 1
    12    6   11 ar
    13    6    7 ar
    14    7    8 ar
    15    7   32 1
    16    8    9 ar
    17    8   33 1
    18    9   10 ar
    19    9   12 1
    20   10   11 ar
    21   10   34 1
    22   11   35 1
    23   12   13 am
    24   12   36 1
    25   13   14 2
    26   13   15 1
    27   15   20 ar
    28   15   16 ar
    29   16   17 ar
    30   16   37 1
    31   17   18 ar
    32   17   38 1
    33   18   19 ar
    34   18   24 1
    35   19   20 ar
    36   19   21 1
    37   20   39 1
    38   21   22 2
    39   21   23 1
    40   24   25 1
    41   25   40 1
    42   25   41 1
    43   25   42 1
@<TRIPOS>MOLECULE
ZINC00444408
   41    42     0     0     0
SMALL
USER_CHARGES

@<TRIPOS>ATOM
      1 C1          9.6230    3.6946   -0.6807 C.3       1 <0>        -0.2143
      2 C2          8.2981    2.9339   -0.7646 C.3       1 <0>        -0.1483
      3 C3          7.2050    3.7335   -0.0529 C.3       1 <0>        -0.1870
      4 C4          5.9000    2.9842   -0.1356 C.2       1 <0>         0.3012
      5 O1          5.8494    1.9158   -0.7075 O.2       1 <0>        -0.3550
      6 N1          4.7893    3.5013    0.4260 N.am      1 <0>        -0.3295
      7 C5          3.5575    2.8538    0.2667 C.ar      1 <0>         0.0504
      8 C6          2.3911    3.5988    0.1522 C.ar      1 <0>        -0.1463
      9 C7          1.1772    2.9608   -0.0052 C.ar      1 <0>        -0.1080
     10 C8          1.1223    1.5736   -0.0491 C.ar      1 <0>         0.0355
     11 C9          2.2882    0.8285    0.0712 C.ar      1 <0>        -0.1406
     12 C10         3.5027    1.4668    0.2229 C.ar      1 <0>        -0.1104
     13 N2         -0.1088    0.9265   -0.2088 N.am      1 <0>        -0.3166
     14 C11        -1.0657    1.4794   -0.9803 C.2       1 <0>         0.3419
     15 O2         -0.8924    2.5789   -1.4691 O.2       1 <0>        -0.3437
     16 C12        -2.3258    0.7488   -1.2320 C.ar      1 <0>        -0.0866
     17 C13        -2.5255   -0.5163   -0.6769 C.ar      1 <0>        -0.1148
     18 C14        -3.7063   -1.1902   -0.9110 C.ar      1 <0>        -0.0781
     19 C15        -4.6864   -0.6199   -1.7039 C.ar      1 <0>        -0.0907
     20 C16        -4.4926    0.6315   -2.2614 C.ar      1 <0>        -0.0792
     21 C17        -3.3189    1.3186   -2.0305 C.ar      1 <0>        -0.0748
     22 N3         -5.9481   -1.3516   -1.9563 N.pl3     1 <0>         0.5452
     23 O3         -6.8128   -0.8520   -2.6535 O.2       1 <0>        -0.3478
     24 O4         -6.1215   -2.4534   -1.4668 O.3       1 <0>        -0.3508
     25 H1         10.4018    3.1249   -1.1877 H         1 <0>         0.0805
     26 H2          9.5142    4.6676   -1.1598 H         1 <0>         0.0716
     27 H3          9.8968    3.8331    0.3652 H         1 <0>         0.0705
     28 H4          8.4069    1.9609   -0.2855 H         1 <0>         0.0969
     29 H5          8.0244    2.7953   -1.8105 H         1 <0>         0.0997
     30 H6          7.0962    4.7065   -0.5320 H         1 <0>         0.1029
     31 H7          7.4787    3.8720    0.9930 H         1 <0>         0.0998
     32 H8          4.8429    4.3219    0.9404 H         1 <0>         0.2320
     33 H9          2.4338    4.6774    0.1859 H         1 <0>         0.1349
     34 H10         0.2702    3.5402   -0.0947 H         1 <0>         0.1655
     35 H11         2.2450   -0.2503    0.0419 H         1 <0>         0.1335
     36 H12         4.4098    0.8875    0.3119 H         1 <0>         0.1693
     37 H13        -0.2745    0.0821    0.2390 H         1 <0>         0.2329
     38 H14        -1.7592   -0.9647   -0.0621 H         1 <0>         0.1423
     39 H15        -3.8641   -2.1670   -0.4782 H         1 <0>         0.1692
     40 H16        -5.2618    1.0711   -2.8791 H         1 <0>         0.1724
     41 H17        -3.1688    2.2953   -2.4663 H         1 <0>         0.1746
@<TRIPOS>BOND
     1    1    2 1
     2    1   25 1
     3    1   26 1
     4    1   27 1
     5    2    3 1
     6    2   28 1
     7    2   29 1
     8    3    4 1
     9    3   30 1
    10    3   31 1
    11    4    5 2
    12    4    6 am
    13    6    7 1
    14    6   32 1
    15    7   12 ar
    16    7    8 ar
    17    8    9 ar
    18    8   33 1
    19    9   10 ar
    20    9   34 1
    21   10   11 ar
    22   10   13 1
    23   11   12 ar
    24   11   35 1
    25   12   36 1
    26   13   14 am
    27   13   37 1
    28   14   15 2
    29   14   16 1
    30   16   21 ar
    31   16   17 ar
    32   17   18 ar
    33   17   38 1
    34   18   19 ar
    35   18   39 1
    36   19   20 ar
    37   19   22 1
    38   20   21 ar
    39   20   40 1
    40   21   41 1
    41   22   23 2
    42   22   24 1
@<TRIPOS>MOLECULE
ZINC00444432
   41    42     0     0     0
SMALL
USER_CHARGES

@<TRIPOS>ATOM
      1 C1         -0.3030    4.9570   -2.7832 C.3       1 <0>        -0.1957
      2 C2         -0.0059    4.1815   -1.4982 C.3       1 <0>        -0.1897
      3 C3         -1.1677    3.2769   -1.1775 C.2       1 <0>         0.3012
      4 O1         -2.1379    3.2546   -1.9051 O.2       1 <0>        -0.3562
      5 N1         -1.1311    2.4967   -0.0792 N.am      1 <0>        -0.3322
      6 C4         -2.2599    1.7578    0.2921 C.ar      1 <0>         0.0787
      7 C5         -2.1139    0.4720    0.7980 C.ar      1 <0>        -0.1693
      8 C6         -3.2278   -0.2582    1.1648 C.ar      1 <0>        -0.0967
      9 C7         -4.4902    0.2870    1.0295 C.ar      1 <0>        -0.1365
     10 C8         -4.6430    1.5719    0.5240 C.ar      1 <0>         0.0716
     11 C9         -3.5255    2.3104    0.1608 C.ar      1 <0>        -0.1540
     12 N2         -5.9210    2.1230    0.3874 N.am      1 <0>        -0.3192
     13 C10        -6.8734    1.8509    1.3014 C.2       1 <0>         0.3494
     14 O2         -6.6460    1.0654    2.2009 O.2       1 <0>        -0.3449
     15 C11        -8.1944    2.5077    1.2102 C.ar      1 <0>        -0.1437
     16 C12        -8.4570    3.4148    0.1819 C.ar      1 <0>        -0.0615
     17 C13        -9.6933    4.0209    0.1001 C.ar      1 <0>        -0.1472
     18 C14       -10.6691    3.7390    1.0399 C.ar      1 <0>         0.0136
     19 C15       -10.4137    2.8451    2.0644 C.ar      1 <0>        -0.1273
     20 C16        -9.1829    2.2282    2.1551 C.ar      1 <0>        -0.0052
     21 N3        -11.4634    2.5496    3.0653 N.pl3     1 <0>         0.5507
     22 O3        -11.2833    1.6788    3.8978 O.2       1 <0>        -0.3455
     23 O4        -12.5073    3.1770    3.0565 O.3       1 <0>        -0.3600
     24 C17       -12.0158    4.4090    0.9472 C.3       1 <0>        -0.1967
     25 H1          0.5374    5.6114   -3.0152 H         1 <0>         0.0740
     26 H2         -0.4549    4.2559   -3.6039 H         1 <0>         0.0919
     27 H3         -1.2030    5.5564   -2.6461 H         1 <0>         0.0886
     28 H4          0.1460    4.8826   -0.6776 H         1 <0>         0.1011
     29 H5          0.8941    3.5822   -1.6354 H         1 <0>         0.1004
     30 H6         -0.3222    2.4473    0.4539 H         1 <0>         0.2337
     31 H7         -1.1286    0.0428    0.9042 H         1 <0>         0.1309
     32 H8         -3.1116   -1.2575    1.5577 H         1 <0>         0.1379
     33 H9         -5.3591   -0.2866    1.3168 H         1 <0>         0.1644
     34 H10        -3.6412    3.3114   -0.2280 H         1 <0>         0.1516
     35 H11        -6.1220    2.7011   -0.3651 H         1 <0>         0.2357
     36 H12        -7.6949    3.6388   -0.5498 H         1 <0>         0.1390
     37 H13        -9.8988    4.7202   -0.6969 H         1 <0>         0.1522
     38 H14        -8.9847    1.5309    2.9556 H         1 <0>         0.1904
     39 H15       -12.0382    5.2729    1.6115 H         1 <0>         0.1116
     40 H16       -12.1898    4.7346   -0.0784 H         1 <0>         0.0825
     41 H17       -12.7933    3.7041    1.2415 H         1 <0>         0.1308
@<TRIPOS>BOND
     1    1    2 1
     2    1   25 1
     3    1   26 1
     4    1   27 1
     5    2    3 1
     6    2   28 1
     7    2   29 1
     8    3    4 2
     9    3    5 am
    10    5    6 1
    11    5   30 1
    12    6   11 ar
    13    6    7 ar
    14    7    8 ar
    15    7   31 1
    16    8    9 ar
    17    8   32 1
    18    9   10 ar
    19    9   33 1
    20   10   11 ar
    21   10   12 1
    22   11   34 1
    23   12   13 am
    24   12   35 1
    25   13   14 2
    26   13   15 1
    27   15   20 ar
    28   15   16 ar
    29   16   17 ar
    30   16   36 1
    31   17   18 ar
    32   17   37 1
    33   18   19 ar
    34   18   24 1
    35   19   20 ar
    36   19   21 1
    37   20   38 1
    38   21   22 2
    39   21   23 1
    40   24   39 1
    41   24   40 1
    42   24   41 1
@<TRIPOS>MOLECULE
ZINC00444455
   38    39     0     0     0
SMALL
USER_CHARGES

@<TRIPOS>ATOM
      1 C1        -11.8696   -2.8844    2.4225 C.3       1 <0>        -0.2143
      2 C2        -10.4254   -2.4190    2.2261 C.3       1 <0>        -0.1483
      3 C3        -10.4079   -1.1691    1.3438 C.3       1 <0>        -0.1869
      4 C4         -8.9854   -0.7107    1.1504 C.2       1 <0>         0.3012
      5 O1         -8.0751   -1.3234    1.6673 O.2       1 <0>        -0.3542
      6 N1         -8.7246    0.3802    0.4030 N.am      1 <0>        -0.3298
      7 C5         -7.4135    0.8629    0.3020 C.ar      1 <0>         0.0531
      8 C6         -7.1816    2.2293    0.2144 C.ar      1 <0>        -0.1469
      9 C7         -5.8896    2.7052    0.1158 C.ar      1 <0>        -0.1087
     10 C8         -4.8215    1.8174    0.1037 C.ar      1 <0>         0.0313
     11 C9         -5.0540    0.4504    0.1850 C.ar      1 <0>        -0.1351
     12 C10        -6.3457   -0.0249    0.2899 C.ar      1 <0>        -0.1107
     13 N2         -3.5113    2.2998    0.0037 N.am      1 <0>        -0.3055
     14 C11        -3.1746    3.4632    0.5950 C.2       1 <0>         0.3846
     15 O2         -4.0275    4.1360    1.1441 O.2       1 <0>        -0.3281
     16 C12        -1.7810    3.9185    0.5768 C.2       1 <0>        -0.0569
     17 C13        -1.3059    5.0709    1.1345 C.2       1 <0>        -0.1446
     18 C14         0.0751    5.1007    0.8848 C.2       1 <0>        -0.1229
     19 C15         0.3777    3.9820    0.1897 C.2       1 <0>        -0.0783
     20 O3         -0.7438    3.2739    0.0032 O.3       1 <0>        -0.0279
     21 N3          1.7266    3.6017   -0.2867 N.pl3     1 <0>         0.5845
     22 O4          2.6795    4.3252   -0.0585 O.2       1 <0>        -0.3236
     23 O5          1.8836    2.5652   -0.9070 O.3       1 <0>        -0.3210
     24 H1        -11.8821   -3.7748    3.0510 H         1 <0>         0.0807
     25 H2        -12.4444   -2.0925    2.9028 H         1 <0>         0.0714
     26 H3        -12.3113   -3.1173    1.4536 H         1 <0>         0.0706
     27 H4         -9.8507   -3.2108    1.7457 H         1 <0>         0.0972
     28 H5         -9.9838   -2.1860    3.1950 H         1 <0>         0.0996
     29 H6        -10.9826   -0.3772    1.8242 H         1 <0>         0.1028
     30 H7        -10.8495   -1.4020    0.3749 H         1 <0>         0.1001
     31 H8         -9.4449    0.8309   -0.0650 H         1 <0>         0.2324
     32 H9         -8.0121    2.9197    0.2238 H         1 <0>         0.1353
     33 H10        -5.7092    3.7679    0.0484 H         1 <0>         0.1639
     34 H11        -4.2238   -0.2403    0.1712 H         1 <0>         0.1375
     35 H12        -6.5262   -1.0875    0.3584 H         1 <0>         0.1706
     36 H13        -2.8457    1.7969   -0.4911 H         1 <0>         0.2450
     37 H14        -1.8805    5.8133    1.6684 H         1 <0>         0.1924
     38 H15         0.7658    5.8725    1.1906 H         1 <0>         0.1896
@<TRIPOS>BOND
     1    1    2 1
     2    1   24 1
     3    1   25 1
     4    1   26 1
     5    2    3 1
     6    2   27 1
     7    2   28 1
     8    3    4 1
     9    3   29 1
    10    3   30 1
    11    4    5 2
    12    4    6 am
    13    6    7 1
    14    6   31 1
    15    7   12 ar
    16    7    8 ar
    17    8    9 ar
    18    8   32 1
    19    9   10 ar
    20    9   33 1
    21   10   11 ar
    22   10   13 1
    23   11   12 ar
    24   11   34 1
    25   12   35 1
    26   13   14 am
    27   13   36 1
    28   14   15 2
    29   14   16 1
    30   16   20 1
    31   16   17 2
    32   17   18 1
    33   17   37 1
    34   18   19 2
    35   18   38 1
    36   19   20 1
    37   19   21 1
    38   21   22 2
    39   21   23 1
@<TRIPOS>MOLECULE
ZINC00444594
   41    42     0     0     0
SMALL
USER_CHARGES

@<TRIPOS>ATOM
      1 C1          7.7051    5.0293   -1.8354 C.3       1 <0>        -0.1959
      2 C2          6.5460    5.4979   -0.9535 C.3       1 <0>        -0.1894
      3 C3          5.3967    4.5312   -1.0790 C.2       1 <0>         0.2995
      4 O1          5.4950    3.5628   -1.8026 O.2       1 <0>        -0.3508
      5 N1          4.2596    4.7428   -0.3871 N.am      1 <0>        -0.3309
      6 C4          3.2374    3.7854   -0.4099 C.ar      1 <0>         0.0539
      7 C5          1.9087    4.1872   -0.3697 C.ar      1 <0>        -0.1464
      8 C6          0.9013    3.2437   -0.3927 C.ar      1 <0>        -0.1067
      9 C7          1.2166    1.8926   -0.4560 C.ar      1 <0>         0.0359
     10 C8          2.5456    1.4906   -0.4904 C.ar      1 <0>        -0.1390
     11 C9          3.5528    2.4344   -0.4732 C.ar      1 <0>        -0.1102
     12 N2          0.1950    0.9357   -0.4793 N.am      1 <0>        -0.3170
     13 C10        -0.9605    1.1990   -1.1212 C.2       1 <0>         0.3426
     14 O2         -1.1470    2.2956   -1.6118 O.2       1 <0>        -0.3446
     15 C11        -2.0009    0.1546   -1.2288 C.ar      1 <0>        -0.0840
     16 C12        -1.7875   -1.1076   -0.6715 C.ar      1 <0>        -0.1219
     17 C13        -2.7646   -2.0760   -0.7708 C.ar      1 <0>        -0.0745
     18 C14        -3.9500   -1.8022   -1.4302 C.ar      1 <0>        -0.0924
     19 C15        -4.1655   -0.5554   -1.9896 C.ar      1 <0>        -0.0203
     20 C16        -3.1985    0.4240   -1.8928 C.ar      1 <0>        -0.0771
     21 C17        -5.4595   -0.2662   -2.7058 C.3       1 <0>        -0.1856
     22 N3         -4.9919   -2.8481   -1.5378 N.pl3     1 <0>         0.5447
     23 O3         -5.0556   -3.7325   -0.7027 O.2       1 <0>        -0.3508
     24 O4         -5.7855   -2.8244   -2.4614 O.3       1 <0>        -0.3495
     25 H1          8.0273    4.0383   -1.5157 H         1 <0>         0.0898
     26 H2          7.3774    4.9873   -2.8741 H         1 <0>         0.0926
     27 H3          8.5364    5.7285   -1.7447 H         1 <0>         0.0734
     28 H4          6.2238    6.4889   -1.2732 H         1 <0>         0.1000
     29 H5          6.8737    5.5399    0.0852 H         1 <0>         0.0999
     30 H6          4.1491    5.5582    0.1267 H         1 <0>         0.2318
     31 H7          1.6635    5.2379   -0.3208 H         1 <0>         0.1351
     32 H8         -0.1320    3.5563   -0.3617 H         1 <0>         0.1655
     33 H9          2.7909    0.4398   -0.5348 H         1 <0>         0.1334
     34 H10         4.5861    2.1220   -0.5045 H         1 <0>         0.1615
     35 H11         0.3172    0.0847   -0.0301 H         1 <0>         0.2331
     36 H12        -0.8609   -1.3240   -0.1605 H         1 <0>         0.1411
     37 H13        -2.6024   -3.0516   -0.3369 H         1 <0>         0.1652
     38 H14        -3.3678    1.3968   -2.3303 H         1 <0>         0.1745
     39 H15        -5.3888   -0.6111   -3.7374 H         1 <0>         0.1143
     40 H16        -6.2763   -0.7854   -2.2043 H         1 <0>         0.1110
     41 H17        -5.6495    0.8070   -2.6937 H         1 <0>         0.0882
@<TRIPOS>BOND
     1    1    2 1
     2    1   25 1
     3    1   26 1
     4    1   27 1
     5    2    3 1
     6    2   28 1
     7    2   29 1
     8    3    4 2
     9    3    5 am
    10    5    6 1
    11    5   30 1
    12    6   11 ar
    13    6    7 ar
    14    7    8 ar
    15    7   31 1
    16    8    9 ar
    17    8   32 1
    18    9   10 ar
    19    9   12 1
    20   10   11 ar
    21   10   33 1
    22   11   34 1
    23   12   13 am
    24   12   35 1
    25   13   14 2
    26   13   15 1
    27   15   20 ar
    28   15   16 ar
    29   16   17 ar
    30   16   36 1
    31   17   18 ar
    32   17   37 1
    33   18   19 ar
    34   18   22 1
    35   19   20 ar
    36   19   21 1
    37   20   38 1
    38   21   39 1
    39   21   40 1
    40   21   41 1
    41   22   23 2
    42   22   24 1
@<TRIPOS>MOLECULE
ZINC00449951
   42    44     0     0     0
SMALL
USER_CHARGES

@<TRIPOS>ATOM
      1 C1         -2.9850   -6.4807    0.7944 C.ar      1 <0>        -0.1455
      2 C2         -4.0878   -7.3037    0.9096 C.ar      1 <0>        -0.1381
      3 C3         -5.2935   -6.9333    0.3321 C.ar      1 <0>         0.0546
      4 C4         -5.3939   -5.7333   -0.3565 C.ar      1 <0>        -0.1385
      5 C5         -4.2935   -4.9065   -0.4677 C.ar      1 <0>        -0.1138
      6 C6         -3.0862   -5.2766    0.1101 C.ar      1 <0>         0.0510
      7 N1         -1.9698   -4.4386   -0.0022 N.am      1 <0>        -0.3172
      8 C7         -2.1280   -3.1002    0.0085 C.2       1 <0>         0.3653
      9 O1         -3.2464   -2.6196    0.0310 O.2       1 <0>        -0.3660
     10 C8         -0.9541   -2.2237   -0.0068 C.2       1 <0>        -0.1558
     11 C9         -1.1176   -0.8407    0.0043 C.2       1 <0>         0.0741
     12 C10         0.0025   -0.0042   -0.0103 C.2       1 <0>        -0.1110
     13 C11        -0.0162    1.3859   -0.0017 C.2       1 <0>        -0.1086
     14 C12         1.3109    1.8050   -0.0220 C.2       1 <0>        -0.2540
     15 C13         2.0947    0.6702   -0.0422 C.2       1 <0>         0.0901
     16 O2          1.2941   -0.4061   -0.0349 O.3       1 <0>        -0.0533
     17 N2          3.4707    0.6461   -0.0660 N.pl3     1 <0>        -0.1544
     18 C14         3.9911    1.4033   -1.2136 C.3       1 <0>        -0.1097
     19 C15         5.5214    1.4009   -1.1681 C.3       1 <0>        -0.0134
     20 O3          5.9907    0.0500   -1.1531 O.3       1 <0>        -0.2758
     21 C16         5.5037   -0.7164   -0.0481 C.3       1 <0>        -0.0148
     22 C17         3.9732   -0.7354   -0.0823 C.3       1 <0>        -0.1235
     23 C18         0.3613   -2.7890   -0.0333 C.1       1 <0>        -0.0813
     24 N3          1.4048   -3.2375   -0.0542 N.1       1 <0>        -0.0528
     25 O4         -6.3776   -7.7467    0.4416 O.3       1 <0>        -0.2908
     26 H1         -2.0452   -6.7713    1.2402 H         1 <0>         0.1341
     27 H2         -4.0104   -8.2381    1.4456 H         1 <0>         0.1413
     28 H3         -6.3328   -5.4458   -0.8061 H         1 <0>         0.1436
     29 H4         -4.3719   -3.9721   -1.0036 H         1 <0>         0.1671
     30 H5         -1.0827   -4.8215   -0.0878 H         1 <0>         0.2390
     31 H6         -2.1097   -0.4143    0.0243 H         1 <0>         0.1851
     32 H7         -0.8915    2.0184    0.0132 H         1 <0>         0.1658
     33 H8          1.6611    2.8266   -0.0222 H         1 <0>         0.1675
     34 H9          3.6537    0.9381   -2.1398 H         1 <0>         0.0868
     35 H10         3.6272    2.4298   -1.1676 H         1 <0>         0.1087
     36 H11         5.8596    1.9138   -0.2677 H         1 <0>         0.0825
     37 H12         5.9131    1.9125   -2.0473 H         1 <0>         0.1169
     38 H13         5.8414   -0.2651    0.8848 H         1 <0>         0.0812
     39 H14         5.8820   -1.7362   -0.1177 H         1 <0>         0.1208
     40 H15         3.5963   -1.2701    0.7895 H         1 <0>         0.1237
     41 H16         3.6349   -1.2350   -0.9900 H         1 <0>         0.0950
     42 H17        -6.4593   -8.3916   -0.2743 H         1 <0>         0.2240
@<TRIPOS>BOND
     1    1    6 ar
     2    1    2 ar
     3    1   26 1
     4    2    3 ar
     5    2   27 1
     6    3    4 ar
     7    3   25 1
     8    4    5 ar
     9    4   28 1
    10    5    6 ar
    11    5   29 1
    12    6    7 1
    13    7    8 am
    14    7   30 1
    15    8    9 2
    16    8   10 1
    17   10   11 2
    18   10   23 1
    19   11   12 1
    20   11   31 1
    21   12   16 1
    22   12   13 2
    23   13   14 1
    24   13   32 1
    25   14   15 2
    26   14   33 1
    27   15   16 1
    28   15   17 1
    29   17   22 1
    30   17   18 1
    31   18   19 1
    32   18   34 1
    33   18   35 1
    34   19   20 1
    35   19   36 1
    36   19   37 1
    37   20   21 1
    38   21   22 1
    39   21   38 1
    40   21   39 1
    41   22   40 1
    42   22   41 1
    43   23   24 3
    44   25   42 1
@<TRIPOS>MOLECULE
ZINC00452803
   40    41     0     0     0
SMALL
USER_CHARGES

@<TRIPOS>ATOM
      1 C1          2.1135    8.0013   -1.1303 C.3       1 <0>        -0.1759
      2 C2          2.0036    6.5109   -0.9365 C.ar      1 <0>        -0.0666
      3 C3          1.8963    5.9856    0.3376 C.ar      1 <0>        -0.1284
      4 C4          1.7955    4.6184    0.5154 C.ar      1 <0>        -0.1054
      5 C5          1.8012    3.7766   -0.5811 C.ar      1 <0>        -0.0749
      6 C6          1.9134    4.3016   -1.8549 C.ar      1 <0>        -0.1048
      7 C7          2.0098    5.6690   -2.0329 C.ar      1 <0>        -0.1280
      8 C8          1.6913    2.2862   -0.3873 C.3       1 <0>        -0.2238
      9 S1         -0.0567    1.8014   -0.4053 S.3       1 <0>         0.1159
     10 C9         -0.0161    0.0040   -0.1634 C.3       1 <0>        -0.3031
     11 C10        -1.4237   -0.5341   -0.1582 C.2       1 <0>         0.3176
     12 O1         -2.3619    0.2206   -0.3034 O.2       1 <0>        -0.3211
     13 N1         -1.6400   -1.8540    0.0078 N.am      1 <0>        -0.3273
     14 C11        -2.9426   -2.3380    0.1229 C.ar      1 <0>         0.0882
     15 C12        -3.9168   -1.5669    0.7491 C.ar      1 <0>        -0.1388
     16 C13        -5.2050   -2.0397    0.8601 C.ar      1 <0>        -0.0852
     17 C14        -5.5311   -3.3002    0.3524 C.ar      1 <0>        -0.1493
     18 C15        -4.5490   -4.0743   -0.2714 C.ar      1 <0>        -0.0466
     19 C16        -3.2640   -3.5933   -0.3837 C.ar      1 <0>        -0.1755
     20 C17        -6.9100   -3.8125    0.4742 C.2       1 <0>         0.3520
     21 O2         -7.1924   -4.9091    0.0316 O.2       1 <0>        -0.3727
     22 N2         -7.8560   -3.0646    1.0761 N.am      1 <0>        -0.4285
     23 H1          3.1637    8.2928   -1.1187 H         1 <0>         0.0864
     24 H2          1.6705    8.2769   -2.0873 H         1 <0>         0.0833
     25 H3          1.5857    8.5123   -0.3250 H         1 <0>         0.0831
     26 H4          1.8915    6.6433    1.1943 H         1 <0>         0.1324
     27 H5          1.7119    4.2080    1.5109 H         1 <0>         0.1331
     28 H6          1.9222    3.6436   -2.7113 H         1 <0>         0.1337
     29 H7          2.0933    6.0795   -3.0284 H         1 <0>         0.1327
     30 H8          2.1349    2.0105    0.5694 H         1 <0>         0.0995
     31 H9          2.2184    1.7752   -1.1930 H         1 <0>         0.1000
     32 H10         0.5469   -0.4590   -0.9738 H         1 <0>         0.1141
     33 H11         0.4635   -0.2237    0.7885 H         1 <0>         0.1144
     34 H12        -0.8895   -2.4672    0.0471 H         1 <0>         0.2340
     35 H13        -3.6631   -0.5946    1.1450 H         1 <0>         0.1638
     36 H14        -5.9617   -1.4389    1.3428 H         1 <0>         0.1295
     37 H15        -4.7979   -5.0487   -0.6651 H         1 <0>         0.1597
     38 H16        -2.5046   -4.1909   -0.8660 H         1 <0>         0.1351
     39 H17        -7.6307   -2.1897    1.4292 H         1 <0>         0.2164
     40 H18        -8.7622   -3.4013    1.1561 H         1 <0>         0.2310
@<TRIPOS>BOND
     1    1    2 1
     2    1   23 1
     3    1   24 1
     4    1   25 1
     5    2    7 ar
     6    2    3 ar
     7    3    4 ar
     8    3   26 1
     9    4    5 ar
    10    4   27 1
    11    5    6 ar
    12    5    8 1
    13    6    7 ar
    14    6   28 1
    15    7   29 1
    16    8    9 1
    17    8   30 1
    18    8   31 1
    19    9   10 1
    20   10   11 1
    21   10   32 1
    22   10   33 1
    23   11   12 2
    24   11   13 am
    25   13   14 1
    26   13   34 1
    27   14   19 ar
    28   14   15 ar
    29   15   16 ar
    30   15   35 1
    31   16   17 ar
    32   16   36 1
    33   17   18 ar
    34   17   20 1
    35   18   19 ar
    36   18   37 1
    37   19   38 1
    38   20   21 2
    39   20   22 am
    40   22   39 1
    41   22   40 1
@<TRIPOS>MOLECULE
ZINC00454299
   40    41     0     0     0
SMALL
USER_CHARGES

@<TRIPOS>ATOM
      1 C1          0.5072    8.4353    0.0340 C.3       1 <0>        -0.1560
      2 C2         -0.8353    7.7937    0.2735 C.2       1 <0>        -0.0383
      3 N1         -1.9159    8.5097    0.2168 N.2       1 <0>        -0.0134
      4 N2         -3.1709    7.8894    0.2710 N.pl3     1 <0>        -0.8164
      5 S1         -4.5463    8.8086    0.3470 S.o2      1 <0>         2.7788
      6 O1         -5.6419    7.9094    0.2449 O.2       1 <0>        -0.9159
      7 O2         -4.3849    9.6907    1.4493 O.2       1 <0>        -0.9022
      8 C3         -4.5824    9.8127   -1.1004 C.ar      1 <0>        -0.7494
      9 C4         -3.9973   11.0651   -1.0876 C.ar      1 <0>        -0.0142
     10 C5         -4.0211   11.8507   -2.2247 C.ar      1 <0>        -0.1543
     11 C6         -4.6394   11.3885   -3.3714 C.ar      1 <0>        -0.0737
     12 C7         -5.2294   10.1384   -3.3825 C.ar      1 <0>        -0.1534
     13 C8         -5.2007    9.3504   -2.2471 C.ar      1 <0>        -0.0279
     14 C9         -0.9207    6.3523    0.5724 C.ar      1 <0>        -0.1126
     15 C10        -1.8693    5.8810    1.4838 C.ar      1 <0>        -0.1072
     16 C11        -1.9458    4.5334    1.7608 C.ar      1 <0>        -0.1610
     17 C12        -1.0808    3.6431    1.1350 C.ar      1 <0>         0.0787
     18 C13        -0.1322    4.1088    0.2317 C.ar      1 <0>        -0.1279
     19 C14        -0.0531    5.4543   -0.0546 C.ar      1 <0>        -0.0858
     20 N3         -1.1613    2.2763    1.4191 N.am      1 <0>        -0.3319
     21 C15        -0.9114    1.3712    0.4523 C.2       1 <0>         0.3007
     22 O3         -0.7164    1.7389   -0.6870 O.2       1 <0>        -0.3497
     23 C16        -0.8804   -0.0982    0.7855 C.3       1 <0>        -0.2411
     24 H1          0.7488    8.3866   -1.0277 H         1 <0>         0.0959
     25 H2          0.4737    9.4774    0.3516 H         1 <0>         0.1025
     26 H3          1.2699    7.9058    0.6049 H         1 <0>         0.0926
     27 H4         -3.2342    6.9215    0.2642 H         1 <0>         0.2403
     28 H5         -3.5181   11.4281   -0.1903 H         1 <0>         0.1549
     29 H6         -3.5598   12.8272   -2.2161 H         1 <0>         0.1354
     30 H7         -4.6612   12.0038   -4.2587 H         1 <0>         0.1313
     31 H8         -5.7125    9.7772   -4.2784 H         1 <0>         0.1351
     32 H9         -5.6617    8.3738   -2.2558 H         1 <0>         0.1476
     33 H10        -2.5419    6.5720    1.9701 H         1 <0>         0.1489
     34 H11        -2.6790    4.1683    2.4648 H         1 <0>         0.1370
     35 H12         0.5408    3.4145   -0.2494 H         1 <0>         0.1624
     36 H13         0.6812    5.8148   -0.7598 H         1 <0>         0.1399
     37 H14        -1.3969    1.9796    2.3121 H         1 <0>         0.2346
     38 H15        -0.6700   -0.6712   -0.1175 H         1 <0>         0.1208
     39 H16        -0.1022   -0.2867    1.5250 H         1 <0>         0.0973
     40 H17        -1.8467   -0.3995    1.1901 H         1 <0>         0.0973
@<TRIPOS>BOND
     1    1    2 1
     2    1   24 1
     3    1   25 1
     4    1   26 1
     5    2    3 2
     6    2   14 1
     7    3    4 1
     8    4    5 1
     9    4   27 1
    10    5    6 2
    11    5    7 2
    12    5    8 1
    13    8   13 ar
    14    8    9 ar
    15    9   10 ar
    16    9   28 1
    17   10   11 ar
    18   10   29 1
    19   11   12 ar
    20   11   30 1
    21   12   13 ar
    22   12   31 1
    23   13   32 1
    24   14   19 ar
    25   14   15 ar
    26   15   16 ar
    27   15   33 1
    28   16   17 ar
    29   16   34 1
    30   17   18 ar
    31   17   20 1
    32   18   19 ar
    33   18   35 1
    34   19   36 1
    35   20   21 am
    36   20   37 1
    37   21   22 2
    38   21   23 1
    39   23   38 1
    40   23   39 1
    41   23   40 1
@<TRIPOS>MOLECULE
ZINC00457156
   38    39     0     0     0
SMALL
USER_CHARGES

@<TRIPOS>ATOM
      1 C1          0.0601   -4.2797   -0.0199 C.3       1 <0>        -0.1790
      2 C2          0.0396   -2.7729   -0.0127 C.ar      1 <0>        -0.0495
      3 C3         -1.1695   -2.1005    0.0020 C.ar      1 <0>        -0.1436
      4 C4         -1.1951   -0.7211    0.0096 C.ar      1 <0>        -0.0663
      5 C5          0.0021   -0.0041    0.0020 C.ar      1 <0>        -0.1491
      6 C6          1.2182   -0.6882   -0.0190 C.ar      1 <0>        -0.0889
      7 C7          1.2301   -2.0678   -0.0202 C.ar      1 <0>        -0.1443
      8 C8         -0.0180    1.4758    0.0102 C.2       1 <0>         0.3243
      9 O1         -1.0811    2.0705    0.0184 O.2       1 <0>        -0.3319
     10 C9          1.1951    2.1984    0.0025 C.2       1 <0>        -0.3612
     11 C10         1.1768    3.5508    0.0099 C.2       1 <0>         0.0716
     12 N1          2.3502    4.2497    0.0024 N.pl3     1 <0>        -0.2684
     13 C11         2.3313    5.6469    0.0101 C.ar      1 <0>         0.1326
     14 C12         1.1197    6.3267    0.0195 C.ar      1 <0>        -0.2071
     15 C13         1.1047    7.7075    0.0319 C.ar      1 <0>         0.0164
     16 C14         2.2938    8.4136    0.0244 C.ar      1 <0>        -0.7996
     17 C15         3.5015    7.7402    0.0097 C.ar      1 <0>         0.0084
     18 C16         3.5239    6.3594    0.0026 C.ar      1 <0>        -0.2064
     19 S1          2.2699   10.1754    0.0340 S.o2      1 <0>         2.7645
     20 O2          1.0242   10.5616    0.5984 O.2       1 <0>        -0.9182
     21 O3          3.5146   10.5955    0.5758 O.2       1 <0>        -0.9153
     22 N2          2.2487   10.6735   -1.5451 N.pl3     1 <0>        -0.9289
     23 H1          0.0552   -4.6382   -1.0492 H         1 <0>         0.0893
     24 H2          0.9598   -4.6333    0.4837 H         1 <0>         0.0831
     25 H3         -0.8200   -4.6575    0.5006 H         1 <0>         0.0846
     26 H4         -2.0953   -2.6566    0.0078 H         1 <0>         0.1346
     27 H5         -2.1395   -0.1974    0.0217 H         1 <0>         0.1522
     28 H6          2.1480   -0.1390   -0.0294 H         1 <0>         0.1302
     29 H7          2.1706   -2.5985   -0.0313 H         1 <0>         0.1313
     30 H8          2.1376    1.6712   -0.0094 H         1 <0>         0.1327
     31 H9          0.2343    4.0780    0.0217 H         1 <0>         0.1815
     32 H10         3.1967    3.7762   -0.0082 H         1 <0>         0.2432
     33 H11         0.1908    5.7759    0.0210 H         1 <0>         0.1493
     34 H12         0.1633    8.2366    0.0434 H         1 <0>         0.1584
     35 H13         4.4283    8.2947    0.0042 H         1 <0>         0.1554
     36 H14         4.4675    5.8340   -0.0085 H         1 <0>         0.1393
     37 H15         1.8151   11.5074   -1.7849 H         1 <0>         0.2443
     38 H16         2.6700   10.1313   -2.2304 H         1 <0>         0.2302
@<TRIPOS>BOND
     1    1    2 1
     2    1   23 1
     3    1   24 1
     4    1   25 1
     5    2    7 ar
     6    2    3 ar
     7    3    4 ar
     8    3   26 1
     9    4    5 ar
    10    4   27 1
    11    5    6 ar
    12    5    8 1
    13    6    7 ar
    14    6   28 1
    15    7   29 1
    16    8    9 2
    17    8   10 1
    18   10   11 2
    19   10   30 1
    20   11   12 1
    21   11   31 1
    22   12   13 1
    23   12   32 1
    24   13   18 ar
    25   13   14 ar
    26   14   15 ar
    27   14   33 1
    28   15   16 ar
    29   15   34 1
    30   16   17 ar
    31   16   19 1
    32   17   18 ar
    33   17   35 1
    34   18   36 1
    35   19   20 2
    36   19   21 2
    37   19   22 1
    38   22   37 1
    39   22   38 1
@<TRIPOS>MOLECULE
ZINC00460879
   40    42     0     0     0
SMALL
USER_CHARGES

@<TRIPOS>ATOM
      1 C1         12.0623    9.2167   -2.5666 C.3       1 <0>        -0.2144
      2 C2         11.2050    7.9671   -2.3556 C.3       1 <0>        -0.1483
      3 C3         10.0237    8.3069   -1.4446 C.3       1 <0>        -0.1868
      4 C4          9.1793    7.0761   -1.2367 C.2       1 <0>         0.3012
      5 O1          9.4917    6.0301   -1.7653 O.2       1 <0>        -0.3558
      6 N1          8.0771    7.1378   -0.4636 N.am      1 <0>        -0.3290
      7 C5          7.2456    6.0173   -0.3387 C.ar      1 <0>         0.0339
      8 C6          7.7950    4.7420   -0.3314 C.ar      1 <0>        -0.0922
      9 C7          6.9750    3.6381   -0.2078 C.ar      1 <0>        -0.1310
     10 C8          5.6023    3.8028   -0.0905 C.ar      1 <0>         0.0664
     11 C9          5.0522    5.0766   -0.1035 C.ar      1 <0>        -0.1935
     12 C10         5.8717    6.1815   -0.2218 C.ar      1 <0>        -0.1249
     13 O2          4.7954    2.7155    0.0316 O.3       1 <0>        -0.1538
     14 C11         3.4532    2.9141    0.0223 C.ar      1 <0>         0.0824
     15 C12         2.8295    3.3662   -1.1330 C.ar      1 <0>        -0.1445
     16 C13         1.4621    3.5726   -1.1556 C.ar      1 <0>        -0.0472
     17 C14         0.7083    3.3264   -0.0167 C.ar      1 <0>        -0.1456
     18 C15         1.3392    2.8674    1.1589 C.ar      1 <0>        -0.1216
     19 C16         2.7074    2.6637    1.1724 C.ar      1 <0>        -0.0695
     20 C17         0.2626    2.7112    2.1603 C.2       1 <0>         0.3585
     21 O3          0.4081    2.3325    3.3050 O.2       1 <0>        -0.2933
     22 N2         -0.9059    3.0536    1.5883 N.am      1 <0>        -0.3548
     23 C18        -0.7266    3.4330    0.3104 C.2       1 <0>         0.3584
     24 O4         -1.6013    3.7976   -0.4497 O.2       1 <0>        -0.2970
     25 H1         12.9039    8.9746   -3.2156 H         1 <0>         0.0809
     26 H2         11.4589    9.9973   -3.0300 H         1 <0>         0.0712
     27 H3         12.4348    9.5685   -1.6045 H         1 <0>         0.0710
     28 H4         11.8084    7.1866   -1.8922 H         1 <0>         0.0977
     29 H5         10.8325    7.6154   -3.3176 H         1 <0>         0.0992
     30 H6          9.4203    9.0875   -1.9080 H         1 <0>         0.1022
     31 H7         10.3962    8.6587   -0.4825 H         1 <0>         0.1008
     32 H8          7.8596    7.9579    0.0064 H         1 <0>         0.2321
     33 H9          8.8635    4.6138   -0.4220 H         1 <0>         0.1733
     34 H10         7.4022    2.6462   -0.2021 H         1 <0>         0.1508
     35 H11         3.9833    5.2041   -0.0166 H         1 <0>         0.1429
     36 H12         5.4439    7.1732   -0.2274 H         1 <0>         0.1337
     37 H13         3.4158    3.5575   -2.0196 H         1 <0>         0.1590
     38 H14         0.9824    3.9247   -2.0569 H         1 <0>         0.1560
     39 H15         3.1949    2.3121    2.0697 H         1 <0>         0.1661
     40 H16        -1.7645    3.0322    2.0391 H         1 <0>         0.2656
@<TRIPOS>BOND
     1    1    2 1
     2    1   25 1
     3    1   26 1
     4    1   27 1
     5    2    3 1
     6    2   28 1
     7    2   29 1
     8    3    4 1
     9    3   30 1
    10    3   31 1
    11    4    5 2
    12    4    6 am
    13    6    7 1
    14    6   32 1
    15    7   12 ar
    16    7    8 ar
    17    8    9 ar
    18    8   33 1
    19    9   10 ar
    20    9   34 1
    21   10   11 ar
    22   10   13 1
    23   11   12 ar
    24   11   35 1
    25   12   36 1
    26   13   14 1
    27   14   19 ar
    28   14   15 ar
    29   15   16 ar
    30   15   37 1
    31   16   17 ar
    32   16   38 1
    33   17   23 1
    34   17   18 ar
    35   18   19 ar
    36   18   20 1
    37   19   39 1
    38   20   21 2
    39   20   22 am
    40   22   23 am
    41   22   40 1
    42   23   24 2
@<TRIPOS>MOLECULE
ZINC00461594
   41    42     0     0     0
SMALL
USER_CHARGES

@<TRIPOS>ATOM
      1 C1          2.3870    4.1155   -0.0060 C.3       1 <0>        -0.0629
      2 O1          1.1253    3.4447    0.0085 O.3       1 <0>        -0.2118
      3 C2          1.1488    2.0859    0.0016 C.ar      1 <0>         0.0965
      4 C3         -0.0397    1.3703    0.0149 C.ar      1 <0>        -0.1564
      5 C4         -0.0131   -0.0108    0.0074 C.ar      1 <0>        -0.0886
      6 C5          1.1966   -0.6801   -0.0134 C.ar      1 <0>        -0.1246
      7 C6          2.3825    0.0308   -0.0268 C.ar      1 <0>        -0.0843
      8 C7          2.3613    1.4121   -0.0188 C.ar      1 <0>        -0.2187
      9 C8          1.2227   -2.1868   -0.0211 C.3       1 <0>        -0.1016
     10 C9          1.2106   -2.6897   -1.4661 C.3       1 <0>        -0.1831
     11 C10         1.2367   -4.1965   -1.4738 C.2       1 <0>         0.3007
     12 O2          1.2624   -4.8079   -0.4266 O.2       1 <0>        -0.3456
     13 N1          1.2314   -4.8646   -2.6443 N.am      1 <0>        -0.3335
     14 C11         1.3532   -6.2585   -2.6548 C.ar      1 <0>         0.1188
     15 C12         2.0422   -6.8891   -3.6825 C.ar      1 <0>        -0.1892
     16 C13         2.1663   -8.2646   -3.6864 C.ar      1 <0>        -0.0092
     17 C14         1.5945   -9.0148   -2.6753 C.ar      1 <0>        -0.7820
     18 C15         0.9025   -8.3904   -1.6538 C.ar      1 <0>        -0.0100
     19 C16         0.7805   -7.0147   -1.6405 C.ar      1 <0>        -0.1543
     20 S1          1.7484  -10.7700   -2.6882 S.o2      1 <0>         2.7633
     21 O3          2.9059  -11.0705   -3.4557 O.2       1 <0>        -0.9195
     22 O4          1.5930  -11.2012   -1.3431 O.2       1 <0>        -0.9163
     23 N2          0.4539  -11.3688   -3.5297 N.pl3     1 <0>        -0.9319
     24 H1          2.9615    3.8280    0.8745 H         1 <0>         0.0693
     25 H2          2.9363    3.8366   -0.9052 H         1 <0>         0.0673
     26 H3          2.2255    5.1934    0.0015 H         1 <0>         0.1089
     27 H4         -0.9849    1.8926    0.0267 H         1 <0>         0.1443
     28 H5         -0.9380   -0.5684    0.0181 H         1 <0>         0.1344
     29 H6          3.3261   -0.4942   -0.0430 H         1 <0>         0.1319
     30 H7          3.2878    1.9669   -0.0292 H         1 <0>         0.1359
     31 H8          2.1262   -2.5371    0.4779 H         1 <0>         0.1061
     32 H9          0.3467   -2.5681    0.5036 H         1 <0>         0.1042
     33 H10         0.3071   -2.3394   -1.9651 H         1 <0>         0.1054
     34 H11         2.0866   -2.3085   -1.9908 H         1 <0>         0.1075
     35 H12         1.1432   -4.3791   -3.4794 H         1 <0>         0.2362
     36 H13         2.4846   -6.3041   -4.4753 H         1 <0>         0.1368
     37 H14         2.7067   -8.7552   -4.4825 H         1 <0>         0.1541
     38 H15         0.4574   -8.9790   -0.8653 H         1 <0>         0.1574
     39 H16         0.2405   -6.5276   -0.8421 H         1 <0>         0.1726
     40 H17        -0.2052  -10.7623   -3.9018 H         1 <0>         0.2288
     41 H18         0.3549  -12.3262   -3.6504 H         1 <0>         0.2430
@<TRIPOS>BOND
     1    1    2 1
     2    1   24 1
     3    1   25 1
     4    1   26 1
     5    2    3 1
     6    3    8 ar
     7    3    4 ar
     8    4    5 ar
     9    4   27 1
    10    5    6 ar
    11    5   28 1
    12    6    7 ar
    13    6    9 1
    14    7    8 ar
    15    7   29 1
    16    8   30 1
    17    9   10 1
    18    9   31 1
    19    9   32 1
    20   10   11 1
    21   10   33 1
    22   10   34 1
    23   11   12 2
    24   11   13 am
    25   13   14 1
    26   13   35 1
    27   14   19 ar
    28   14   15 ar
    29   15   16 ar
    30   15   36 1
    31   16   17 ar
    32   16   37 1
    33   17   18 ar
    34   17   20 1
    35   18   19 ar
    36   18   38 1
    37   19   39 1
    38   20   21 2
    39   20   22 2
    40   20   23 1
    41   23   40 1
    42   23   41 1
@<TRIPOS>MOLECULE
ZINC00462783
   40    42     0     0     0
SMALL
USER_CHARGES

@<TRIPOS>ATOM
      1 C1         -6.9361    2.3807   -1.3311 C.3       1 <0>        -0.2090
      2 C2         -5.4063    2.4005   -1.3493 C.3       1 <0>        -0.1854
      3 C3         -4.8792    2.4094    0.0871 C.3       1 <0>        -0.0061
      4 N1         -3.4145    2.4284    0.0697 N.am      1 <0>        -0.3189
      5 C4         -2.6394    1.3291    0.0617 C.2       1 <0>         0.3556
      6 O1         -3.0365    0.1816    0.0687 O.2       1 <0>        -0.2959
      7 C5         -1.2212    1.7528    0.0390 C.ar      1 <0>        -0.1105
      8 C6         -0.0121    1.0753    0.0317 C.ar      1 <0>        -0.0710
      9 C7          1.1765    1.7849    0.0164 C.ar      1 <0>        -0.0937
     10 C8          1.1636    3.1797    0.0142 C.ar      1 <0>        -0.1144
     11 C9         -0.0516    3.8706    0.0274 C.ar      1 <0>        -0.0033
     12 C10        -1.2409    3.1626    0.0422 C.ar      1 <0>        -0.1415
     13 C11        -2.6682    3.5473    0.0591 C.2       1 <0>         0.3586
     14 O2         -3.0956    4.6841    0.0627 O.2       1 <0>        -0.2910
     15 C12         2.4391    3.9297   -0.0017 C.2       1 <0>         0.3458
     16 O3          2.4294    5.1451   -0.0036 O.2       1 <0>        -0.3424
     17 N2          3.6115    3.2651   -0.0140 N.am      1 <0>        -0.3211
     18 C13         4.8153    3.9711   -0.1269 C.ar      1 <0>         0.0462
     19 C14         5.8790    3.4226   -0.8314 C.ar      1 <0>        -0.1457
     20 C15         7.0639    4.1220   -0.9471 C.ar      1 <0>        -0.1379
     21 C16         7.1958    5.3674   -0.3503 C.ar      1 <0>         0.0584
     22 C17         6.1356    5.9135    0.3585 C.ar      1 <0>        -0.1370
     23 C18         4.9481    5.2178    0.4703 C.ar      1 <0>        -0.1114
     24 O4          8.3646    6.0532   -0.4603 O.3       1 <0>        -0.2898
     25 H1         -7.2817    1.4869   -0.8117 H         1 <0>         0.0758
     26 H2         -7.3048    3.2667   -0.8142 H         1 <0>         0.0766
     27 H3         -7.3115    2.3744   -2.3543 H         1 <0>         0.0819
     28 H4         -5.0607    3.2943   -1.8686 H         1 <0>         0.0949
     29 H5         -5.0376    1.5145   -1.8661 H         1 <0>         0.0935
     30 H6         -5.2249    1.5156    0.6064 H         1 <0>         0.1117
     31 H7         -5.2480    3.2954    0.6039 H         1 <0>         0.1129
     32 H8          0.0028   -0.0046    0.0333 H         1 <0>         0.1547
     33 H9          2.1181    1.2561    0.0065 H         1 <0>         0.1357
     34 H10        -0.0624    4.9506    0.0257 H         1 <0>         0.1779
     35 H11         3.6213    2.2976    0.0554 H         1 <0>         0.2325
     36 H12         5.7779    2.4511   -1.2923 H         1 <0>         0.1315
     37 H13         7.8895    3.6977   -1.4990 H         1 <0>         0.1424
     38 H14         6.2392    6.8829    0.8232 H         1 <0>         0.1460
     39 H15         4.1228    5.6433    1.0218 H         1 <0>         0.1682
     40 H16         8.9981    5.8668    0.2461 H         1 <0>         0.2255
@<TRIPOS>BOND
     1    1    2 1
     2    1   25 1
     3    1   26 1
     4    1   27 1
     5    2    3 1
     6    2   28 1
     7    2   29 1
     8    3    4 1
     9    3   30 1
    10    3   31 1
    11    4   13 am
    12    4    5 am
    13    5    6 2
    14    5    7 1
    15    7   12 ar
    16    7    8 ar
    17    8    9 ar
    18    8   32 1
    19    9   10 ar
    20    9   33 1
    21   10   11 ar
    22   10   15 1
    23   11   12 ar
    24   11   34 1
    25   12   13 1
    26   13   14 2
    27   15   16 2
    28   15   17 am
    29   17   18 1
    30   17   35 1
    31   18   23 ar
    32   18   19 ar
    33   19   20 ar
    34   19   36 1
    35   20   21 ar
    36   20   37 1
    37   21   22 ar
    38   21   24 1
    39   22   23 ar
    40   22   38 1
    41   23   39 1
    42   24   40 1
@<TRIPOS>MOLECULE
ZINC00463141
   42    43     0     0     0
SMALL
USER_CHARGES

@<TRIPOS>ATOM
      1 C1         -1.6730    9.7576    8.5047 C.3       1 <0>        -0.1753
      2 C2         -2.1507    8.4069    8.0373 C.ar      1 <0>        -0.0678
      3 C3         -3.2451    8.3132    7.1980 C.ar      1 <0>        -0.1241
      4 C4         -3.6833    7.0743    6.7693 C.ar      1 <0>        -0.1039
      5 C5         -3.0265    5.9290    7.1790 C.ar      1 <0>        -0.0721
      6 C6         -1.9350    6.0224    8.0221 C.ar      1 <0>        -0.1068
      7 C7         -1.4942    7.2616    8.4474 C.ar      1 <0>        -0.1251
      8 C8         -3.5042    4.5783    6.7116 C.3       1 <0>        -0.1440
      9 C9         -2.8059    4.2157    5.4263 C.2       1 <0>         0.2982
     10 O1         -1.9997    4.9790    4.9379 O.2       1 <0>        -0.3277
     11 N1         -3.0773    3.0433    4.8195 N.am      1 <0>        -0.3356
     12 C10        -2.3508    2.6565    3.6879 C.ar      1 <0>         0.1238
     13 C11        -1.0136    3.0108    3.5649 C.ar      1 <0>        -0.1591
     14 C12        -0.2992    2.6272    2.4469 C.ar      1 <0>        -0.0129
     15 C13        -0.9138    1.8906    1.4509 C.ar      1 <0>        -0.7823
     16 C14        -2.2465    1.5408    1.5680 C.ar      1 <0>         0.0138
     17 C15        -2.9652    1.9172    2.6857 C.ar      1 <0>        -0.1928
     18 S1          0.0012    1.4031    0.0263 S.o2      1 <0>         2.7489
     19 O2          1.0761    2.3239   -0.1008 O.2       1 <0>        -0.9110
     20 O3         -0.9459    1.1899   -1.0114 O.2       1 <0>        -0.8834
     21 N2          0.6779   -0.0711    0.3597 N.am      1 <0>        -0.8301
     22 C16        -0.1113   -1.1457    0.5569 C.2       1 <0>         0.3249
     23 O4         -1.3171   -1.0330    0.4902 O.2       1 <0>        -0.3312
     24 C17         0.5044   -2.4872    0.8604 C.3       1 <0>        -0.2406
     25 H1         -2.1786   10.0202    9.4339 H         1 <0>         0.0849
     26 H2         -0.5967    9.7238    8.6737 H         1 <0>         0.0827
     27 H3         -1.8981   10.5057    7.7446 H         1 <0>         0.0833
     28 H4         -3.7580    9.2080    6.8776 H         1 <0>         0.1317
     29 H5         -4.5386    7.0011    6.1139 H         1 <0>         0.1288
     30 H6         -1.4246    5.1273    8.3458 H         1 <0>         0.1265
     31 H7         -0.6389    7.3348    9.1028 H         1 <0>         0.1307
     32 H8         -4.5806    4.6119    6.5433 H         1 <0>         0.1080
     33 H9         -3.2783    3.8301    7.4714 H         1 <0>         0.1079
     34 H10        -3.7762    2.4676    5.1672 H         1 <0>         0.2346
     35 H11        -0.5331    3.5861    4.3424 H         1 <0>         0.1654
     36 H12         0.7407    2.9024    2.3506 H         1 <0>         0.1499
     37 H13        -2.7248    0.9693    0.7863 H         1 <0>         0.1708
     38 H14        -4.0049    1.6401    2.7785 H         1 <0>         0.1375
     39 H15         1.6422   -0.1612    0.4131 H         1 <0>         0.2527
     40 H16         0.6169   -2.5998    1.9387 H         1 <0>         0.1092
     41 H17        -0.1409   -3.2781    0.4779 H         1 <0>         0.1212
     42 H18         1.4826   -2.5542    0.3841 H         1 <0>         0.0906
@<TRIPOS>BOND
     1    1    2 1
     2    1   25 1
     3    1   26 1
     4    1   27 1
     5    2    7 ar
     6    2    3 ar
     7    3    4 ar
     8    3   28 1
     9    4    5 ar
    10    4   29 1
    11    5    6 ar
    12    5    8 1
    13    6    7 ar
    14    6   30 1
    15    7   31 1
    16    8    9 1
    17    8   32 1
    18    8   33 1
    19    9   10 2
    20    9   11 am
    21   11   12 1
    22   11   34 1
    23   12   17 ar
    24   12   13 ar
    25   13   14 ar
    26   13   35 1
    27   14   15 ar
    28   14   36 1
    29   15   16 ar
    30   15   18 1
    31   16   17 ar
    32   16   37 1
    33   17   38 1
    34   18   19 2
    35   18   20 2
    36   18   21 1
    37   21   22 am
    38   21   39 1
    39   22   23 2
    40   22   24 1
    41   24   40 1
    42   24   41 1
    43   24   42 1
@<TRIPOS>MOLECULE
ZINC00463201
   40    41     0     0     0
SMALL
USER_CHARGES

@<TRIPOS>ATOM
      1 C1          2.2873    3.6572    1.2419 C.3       1 <0>        -0.1743
      2 C2          1.0791    3.0338    0.5916 C.ar      1 <0>        -0.1349
      3 C3         -0.1296    3.7024    0.5940 C.ar      1 <0>        -0.0141
      4 C4         -1.2385    3.1311   -0.0023 C.ar      1 <0>        -0.7785
      5 C5         -1.1404    1.8910   -0.6068 C.ar      1 <0>        -0.0129
      6 C6          0.0638    1.2152   -0.6081 C.ar      1 <0>        -0.1504
      7 C7          1.1798    1.7866   -0.0102 C.ar      1 <0>         0.1180
      8 N1          2.4026    1.1065   -0.0140 N.am      1 <0>        -0.3309
      9 C8          2.4265   -0.2377    0.0812 C.2       1 <0>         0.3034
     10 O1          1.3877   -0.8637    0.0879 O.2       1 <0>        -0.3329
     11 C9          3.7439   -0.9628    0.1793 C.3       1 <0>        -0.0935
     12 H1          4.3421   -0.7510   -0.7069 H         1 <0>         0.1113
     13 C10         4.4944   -0.4906    1.4261 C.3       1 <0>        -0.2043
     14 C11         3.4950   -2.4461    0.2745 C.ar      1 <0>        -0.0705
     15 C12         2.7586   -2.9572    1.3268 C.ar      1 <0>        -0.0908
     16 C13         2.5266   -4.3173    1.4118 C.ar      1 <0>        -0.1258
     17 C14         3.0390   -5.1673    0.4496 C.ar      1 <0>        -0.1212
     18 C15         3.7794   -4.6567   -0.6002 C.ar      1 <0>        -0.1295
     19 C16         4.0078   -3.2961   -0.6875 C.ar      1 <0>        -0.1178
     20 S1         -2.7785    3.9872    0.0029 S.o2      1 <0>         2.7630
     21 O2         -3.7917    3.0013   -0.1406 O.2       1 <0>        -0.9179
     22 O3         -2.7401    4.8854    1.1033 O.2       1 <0>        -0.9173
     23 N2         -2.8262    4.9176   -1.3661 N.pl3     1 <0>        -0.9294
     24 H2          2.8258    4.2571    0.5083 H         1 <0>         0.0815
     25 H3          1.9679    4.2933    2.0674 H         1 <0>         0.0944
     26 H4          2.9419    2.8722    1.6203 H         1 <0>         0.0786
     27 H5         -0.2085    4.6725    1.0620 H         1 <0>         0.1527
     28 H6         -2.0074    1.4492   -1.0754 H         1 <0>         0.1565
     29 H7          0.1390    0.2454   -1.0773 H         1 <0>         0.1740
     30 H8          3.2332    1.6025   -0.0851 H         1 <0>         0.2367
     31 H9          4.6745    0.5822    1.3573 H         1 <0>         0.0682
     32 H10         3.8962   -0.7025    2.3123 H         1 <0>         0.0915
     33 H11         5.4473   -1.0151    1.4971 H         1 <0>         0.0927
     34 H12         2.3617   -2.2936    2.0808 H         1 <0>         0.1358
     35 H13         1.9478   -4.7162    2.2317 H         1 <0>         0.1321
     36 H14         2.8606   -6.2303    0.5178 H         1 <0>         0.1294
     37 H15         4.1798   -5.3208   -1.3519 H         1 <0>         0.1294
     38 H16         4.5866   -2.8972   -1.5074 H         1 <0>         0.1251
     39 H17        -3.6766    5.1159   -1.7884 H         1 <0>         0.2431
     40 H18        -2.0036    5.2644   -1.7457 H         1 <0>         0.2294
@<TRIPOS>BOND
     1    1    2 1
     2    1   24 1
     3    1   25 1
     4    1   26 1
     5    2    7 ar
     6    2    3 ar
     7    3    4 ar
     8    3   27 1
     9    4    5 ar
    10    4   20 1
    11    5    6 ar
    12    5   28 1
    13    6    7 ar
    14    6   29 1
    15    7    8 1
    16    8    9 am
    17    8   30 1
    18    9   10 2
    19    9   11 1
    20   11   12 1
    21   11   13 1
    22   11   14 1
    23   13   31 1
    24   13   32 1
    25   13   33 1
    26   14   19 ar
    27   14   15 ar
    28   15   16 ar
    29   15   34 1
    30   16   17 ar
    31   16   35 1
    32   17   18 ar
    33   17   36 1
    34   18   19 ar
    35   18   37 1
    36   19   38 1
    37   20   21 2
    38   20   22 2
    39   20   23 1
    40   23   39 1
    41   23   40 1
@<TRIPOS>MOLECULE
ZINC00463202
   40    41     0     0     0
SMALL
USER_CHARGES

@<TRIPOS>ATOM
      1 C1         -4.2913    1.2299    2.9953 C.3       1 <0>        -0.1731
      2 C2         -2.9022    1.7712    2.7749 C.ar      1 <0>        -0.1411
      3 C3         -2.1802    1.3893    1.6609 C.ar      1 <0>        -0.0048
      4 C4         -0.9054    1.8848    1.4584 C.ar      1 <0>        -0.7844
      5 C5         -0.3471    2.7600    2.3722 C.ar      1 <0>        -0.0165
      6 C6         -1.0660    3.1501    3.4849 C.ar      1 <0>        -0.1597
      7 C7         -2.3467    2.6539    3.6915 C.ar      1 <0>         0.1208
      8 N1         -3.0753    3.0422    4.8211 N.am      1 <0>        -0.3252
      9 C8         -2.8038    4.2147    5.4278 C.2       1 <0>         0.3038
     10 O1         -1.9988    4.9786    4.9385 O.2       1 <0>        -0.3354
     11 C9         -3.5005    4.5766    6.7141 C.3       1 <0>        -0.0944
     12 H1         -3.2732    3.8284    7.4735 H         1 <0>         0.1144
     13 C10        -5.0118    4.6228    6.4801 C.3       1 <0>        -0.2049
     14 C11        -3.0231    5.9275    7.1812 C.ar      1 <0>        -0.0709
     15 C12        -3.1980    7.0383    6.3773 C.ar      1 <0>        -0.0915
     16 C13        -2.7639    8.2782    6.8077 C.ar      1 <0>        -0.1270
     17 C14        -2.1468    8.4057    8.0380 C.ar      1 <0>        -0.1209
     18 C15        -1.9672    7.2940    8.8397 C.ar      1 <0>        -0.1290
     19 C16        -2.4051    6.0548    8.4112 C.ar      1 <0>        -0.1165
     20 S1          0.0128    1.3943    0.0367 S.o2      1 <0>         2.7631
     21 O2         -0.5172    0.1425   -0.3771 O.2       1 <0>        -0.9217
     22 O3          1.3855    1.5715    0.3588 O.2       1 <0>        -0.9141
     23 N2         -0.3342    2.4767   -1.1676 N.pl3     1 <0>        -0.9243
     24 H2         -4.2343    0.3078    3.5738 H         1 <0>         0.0863
     25 H3         -4.8852    1.9642    3.5396 H         1 <0>         0.0739
     26 H4         -4.7590    1.0262    2.0321 H         1 <0>         0.0915
     27 H5         -2.6117    0.7028    0.9476 H         1 <0>         0.1517
     28 H6          0.6505    3.1421    2.2133 H         1 <0>         0.1535
     29 H7         -0.6311    3.8368    4.1960 H         1 <0>         0.1789
     30 H8         -3.7758    2.4677    5.1676 H         1 <0>         0.2384
     31 H9         -5.2392    5.3710    5.7208 H         1 <0>         0.0902
     32 H10        -5.3572    3.6457    6.1422 H         1 <0>         0.0675
     33 H11        -5.5158    4.8845    7.4105 H         1 <0>         0.0937
     34 H12        -3.6768    6.9381    5.4145 H         1 <0>         0.1345
     35 H13        -2.9046    9.1468    6.1815 H         1 <0>         0.1312
     36 H14        -1.8053    9.3739    8.3731 H         1 <0>         0.1294
     37 H15        -1.4850    7.3936    9.8009 H         1 <0>         0.1301
     38 H16        -2.2648    5.1863    9.0375 H         1 <0>         0.1263
     39 H17        -0.7352    2.1689   -1.9955 H         1 <0>         0.2414
     40 H18        -0.1365    3.4184   -1.0452 H         1 <0>         0.2346
@<TRIPOS>BOND
     1    1    2 1
     2    1   24 1
     3    1   25 1
     4    1   26 1
     5    2    7 ar
     6    2    3 ar
     7    3    4 ar
     8    3   27 1
     9    4    5 ar
    10    4   20 1
    11    5    6 ar
    12    5   28 1
    13    6    7 ar
    14    6   29 1
    15    7    8 1
    16    8    9 am
    17    8   30 1
    18    9   10 2
    19    9   11 1
    20   11   12 1
    21   11   13 1
    22   11   14 1
    23   13   31 1
    24   13   32 1
    25   13   33 1
    26   14   19 ar
    27   14   15 ar
    28   15   16 ar
    29   15   34 1
    30   16   17 ar
    31   16   35 1
    32   17   18 ar
    33   17   36 1
    34   18   19 ar
    35   18   37 1
    36   19   38 1
    37   20   21 2
    38   20   22 2
    39   20   23 1
    40   23   39 1
    41   23   40 1
@<TRIPOS>MOLECULE
ZINC00463896
   44    45     0     0     0
SMALL
USER_CHARGES

@<TRIPOS>ATOM
      1 C1          4.7068   -9.1584   -3.6698 C.3       1 <0>        -0.1722
      2 C2          4.4575   -7.9633   -2.7863 C.ar      1 <0>        -0.1100
      3 C3          3.1634   -7.5353   -2.5530 C.ar      1 <0>        -0.0854
      4 C4          2.9324   -6.4399   -1.7439 C.ar      1 <0>        -0.2304
      5 C5          4.0000   -5.7692   -1.1647 C.ar      1 <0>         0.0909
      6 C6          5.2974   -6.1973   -1.4045 C.ar      1 <0>        -0.1464
      7 C7          5.5230   -7.2965   -2.2107 C.ar      1 <0>        -0.0367
      8 C8          6.9320   -7.7653   -2.4675 C.3       1 <0>        -0.1777
      9 O1          3.7753   -4.6912   -0.3682 O.3       1 <0>        -0.1765
     10 C9          2.4271   -4.2279   -0.2686 C.3       1 <0>         0.0102
     11 H1          1.9251   -4.3623   -1.2268 H         1 <0>         0.1060
     12 C10         1.6916   -5.0270    0.8090 C.3       1 <0>        -0.2420
     13 C11         2.4240   -2.7666    0.0996 C.2       1 <0>         0.3012
     14 O2          3.4730   -2.1796    0.2609 O.2       1 <0>        -0.3078
     15 N1          1.2555   -2.1120    0.2497 N.am      1 <0>        -0.3331
     16 C12         1.2516   -0.7331    0.4875 C.ar      1 <0>         0.1224
     17 C13         2.2333    0.0727   -0.0742 C.ar      1 <0>        -0.1539
     18 C14         2.2263    1.4334    0.1621 C.ar      1 <0>        -0.0112
     19 C15         1.2433    1.9936    0.9571 C.ar      1 <0>        -0.7821
     20 C16         0.2644    1.1940    1.5179 C.ar      1 <0>        -0.0047
     21 C17         0.2657   -0.1674    1.2854 C.ar      1 <0>        -0.1885
     22 S1          1.2381    3.7300    1.2561 S.o2      1 <0>         2.7629
     23 O3          0.5339    3.9303    2.4740 O.2       1 <0>        -0.9202
     24 O4          2.5726    4.1791    1.0651 O.2       1 <0>        -0.9122
     25 N2          0.3279    4.4296    0.0626 N.pl3     1 <0>        -0.9296
     26 H2          4.8234   -8.8289   -4.7023 H         1 <0>         0.0848
     27 H3          5.6149   -9.6667   -3.3459 H         1 <0>         0.0846
     28 H4          3.8622   -9.8440   -3.6004 H         1 <0>         0.0787
     29 H5          2.3328   -8.0577   -3.0040 H         1 <0>         0.1306
     30 H6          1.9215   -6.1060   -1.5620 H         1 <0>         0.1291
     31 H7          6.1304   -5.6742   -0.9584 H         1 <0>         0.1498
     32 H8          7.3279   -7.2608   -3.3489 H         1 <0>         0.0900
     33 H9          7.5556   -7.5319   -1.6045 H         1 <0>         0.0852
     34 H10         6.9317   -8.8424   -2.6349 H         1 <0>         0.0870
     35 H11         1.6939   -6.0840    0.5427 H         1 <0>         0.1002
     36 H12         2.1936   -4.8927    1.7671 H         1 <0>         0.1071
     37 H13         0.6633   -4.6737    0.8850 H         1 <0>         0.0755
     38 H14         0.4172   -2.5968    0.1929 H         1 <0>         0.2351
     39 H15         3.0011   -0.3642   -0.6955 H         1 <0>         0.1683
     40 H16         2.9921    2.0600   -0.2708 H         1 <0>         0.1570
     41 H17        -0.5022    1.6346    2.1380 H         1 <0>         0.1543
     42 H18        -0.4993   -0.7914    1.7234 H         1 <0>         0.1367
     43 H19        -0.1610    5.2480    0.2422 H         1 <0>         0.2433
     44 H20         0.2837    4.0211   -0.8160 H         1 <0>         0.2298
@<TRIPOS>BOND
     1    1    2 1
     2    1   26 1
     3    1   27 1
     4    1   28 1
     5    2    7 ar
     6    2    3 ar
     7    3    4 ar
     8    3   29 1
     9    4    5 ar
    10    4   30 1
    11    5    6 ar
    12    5    9 1
    13    6    7 ar
    14    6   31 1
    15    7    8 1
    16    8   32 1
    17    8   33 1
    18    8   34 1
    19    9   10 1
    20   10   11 1
    21   10   12 1
    22   10   13 1
    23   12   35 1
    24   12   36 1
    25   12   37 1
    26   13   14 2
    27   13   15 am
    28   15   16 1
    29   15   38 1
    30   16   21 ar
    31   16   17 ar
    32   17   18 ar
    33   17   39 1
    34   18   19 ar
    35   18   40 1
    36   19   20 ar
    37   19   22 1
    38   20   21 ar
    39   20   41 1
    40   21   42 1
    41   22   23 2
    42   22   24 2
    43   22   25 1
    44   25   43 1
    45   25   44 1
@<TRIPOS>MOLECULE
ZINC00463897
   44    45     0     0     0
SMALL
USER_CHARGES

@<TRIPOS>ATOM
      1 C1          4.9616    4.2566    0.0860 C.3       1 <0>        -0.1722
      2 C2          3.6264    3.5625    0.1664 C.ar      1 <0>        -0.1096
      3 C3          2.5055    4.2665    0.5670 C.ar      1 <0>        -0.0869
      4 C4          1.2807    3.6325    0.6419 C.ar      1 <0>        -0.1502
      5 C5          1.1754    2.2883    0.3143 C.ar      1 <0>         0.0910
      6 C6          2.3022    1.5831   -0.0822 C.ar      1 <0>        -0.2251
      7 C7          3.5242    2.2231   -0.1601 C.ar      1 <0>        -0.0360
      8 C8          4.7478    1.4589   -0.5958 C.3       1 <0>        -0.1785
      9 O1         -0.0287    1.6623    0.3872 O.3       1 <0>        -0.1763
     10 C9         -0.0418    0.2523    0.1553 C.3       1 <0>         0.0101
     11 H1          0.8711   -0.1901    0.5541 H         1 <0>         0.1039
     12 C10        -0.1241   -0.0166   -1.3486 C.3       1 <0>        -0.2408
     13 C11        -1.2369   -0.3584    0.8409 C.2       1 <0>         0.3011
     14 O2         -2.0509    0.3540    1.3895 O.2       1 <0>        -0.3074
     15 N1         -1.4011   -1.6961    0.8444 N.am      1 <0>        -0.3328
     16 C12        -2.5621   -2.2570    1.3878 C.ar      1 <0>         0.1227
     17 C13        -2.5079   -3.4921    2.0204 C.ar      1 <0>        -0.1889
     18 C14        -3.6545   -4.0400    2.5616 C.ar      1 <0>        -0.0044
     19 C15        -4.8578   -3.3660    2.4628 C.ar      1 <0>        -0.7823
     20 C16        -4.9163   -2.1388    1.8281 C.ar      1 <0>        -0.0109
     21 C17        -3.7721   -1.5825    1.2906 C.ar      1 <0>        -0.1541
     22 S1         -6.3197   -4.0720    3.1476 S.o2      1 <0>         2.7628
     23 O3         -5.8988   -4.9702    4.1651 O.2       1 <0>        -0.9202
     24 O4         -7.2100   -2.9944    3.4033 O.2       1 <0>        -0.9121
     25 N2         -7.0198   -4.9934    1.9630 N.pl3     1 <0>        -0.9296
     26 H2          5.4740    4.1708    1.0443 H         1 <0>         0.0852
     27 H3          5.5666    3.7916   -0.6924 H         1 <0>         0.0826
     28 H4          4.8101    5.3095   -0.1520 H         1 <0>         0.0806
     29 H5          2.5880    5.3127    0.8219 H         1 <0>         0.1371
     30 H6          0.4056    4.1826    0.9548 H         1 <0>         0.1487
     31 H7          2.2236    0.5357   -0.3334 H         1 <0>         0.1304
     32 H8          5.2331    1.0218    0.2769 H         1 <0>         0.0884
     33 H9          4.4550    0.6659   -1.2840 H         1 <0>         0.0778
     34 H10         5.4404    2.1362   -1.0955 H         1 <0>         0.0889
     35 H11        -0.1341   -1.0921   -1.5254 H         1 <0>         0.0781
     36 H12        -1.0370    0.4258   -1.7474 H         1 <0>         0.1050
     37 H13         0.7403    0.4251   -1.8445 H         1 <0>         0.1002
     38 H14        -0.7144   -2.2700    0.4702 H         1 <0>         0.2345
     39 H15        -1.5694   -4.0214    2.0933 H         1 <0>         0.1367
     40 H16        -3.6120   -4.9979    3.0585 H         1 <0>         0.1544
     41 H17        -5.8576   -1.6147    1.7528 H         1 <0>         0.1569
     42 H18        -3.8183   -0.6237    0.7957 H         1 <0>         0.1682
     43 H19        -7.5404   -5.7763    2.2016 H         1 <0>         0.2433
     44 H20        -6.9093   -4.7501    1.0305 H         1 <0>         0.2298
@<TRIPOS>BOND
     1    1    2 1
     2    1   26 1
     3    1   27 1
     4    1   28 1
     5    2    7 ar
     6    2    3 ar
     7    3    4 ar
     8    3   29 1
     9    4    5 ar
    10    4   30 1
    11    5    6 ar
    12    5    9 1
    13    6    7 ar
    14    6   31 1
    15    7    8 1
    16    8   32 1
    17    8   33 1
    18    8   34 1
    19    9   10 1
    20   10   11 1
    21   10   12 1
    22   10   13 1
    23   12   35 1
    24   12   36 1
    25   12   37 1
    26   13   14 2
    27   13   15 am
    28   15   16 1
    29   15   38 1
    30   16   21 ar
    31   16   17 ar
    32   17   18 ar
    33   17   39 1
    34   18   19 ar
    35   18   40 1
    36   19   20 ar
    37   19   22 1
    38   20   21 ar
    39   20   41 1
    40   21   42 1
    41   22   23 2
    42   22   24 2
    43   22   25 1
    44   25   43 1
    45   25   44 1
@<TRIPOS>MOLECULE
ZINC00463972
   41    42     0     0     0
SMALL
USER_CHARGES

@<TRIPOS>ATOM
      1 C1         -1.5759   -9.0934    0.8853 C.3       1 <0>        -0.1933
      2 C2         -2.7464   -8.5219    0.0827 C.3       1 <0>        -0.1383
      3 C3         -4.0654   -8.9952    0.6969 C.3       1 <0>        -0.2068
      4 C4         -2.6894   -7.0163    0.1140 C.2       1 <0>         0.3038
      5 O1         -1.8001   -6.4556    0.7188 O.2       1 <0>        -0.3418
      6 N1         -3.6266   -6.2929   -0.5299 N.am      1 <0>        -0.3312
      7 C5         -3.6306   -4.8975   -0.4213 C.ar      1 <0>         0.0573
      8 C6         -4.8360   -4.2061   -0.3934 C.ar      1 <0>        -0.1359
      9 C7         -4.8453   -2.8281   -0.2871 C.ar      1 <0>        -0.1184
     10 C8         -3.6578   -2.1293   -0.2075 C.ar      1 <0>        -0.1240
     11 C9         -2.4419   -2.8144   -0.2342 C.ar      1 <0>        -0.1178
     12 C10        -2.4324   -4.2049   -0.3468 C.ar      1 <0>        -0.0615
     13 C11        -1.1683   -2.0685   -0.1496 C.2       1 <0>         0.3499
     14 O2         -0.1106   -2.6672   -0.1731 O.2       1 <0>        -0.3349
     15 N2         -1.1799   -0.7248   -0.0465 N.am      1 <0>        -0.3276
     16 C12         0.0233   -0.0104   -0.0739 C.ar      1 <0>         0.0512
     17 C13         0.1583    1.1532    0.6722 C.ar      1 <0>        -0.1017
     18 C14         1.3464    1.8563    0.6441 C.ar      1 <0>        -0.1604
     19 C15         2.4029    1.4021   -0.1278 C.ar      1 <0>         0.1427
     20 C16         2.2706    0.2421   -0.8720 C.ar      1 <0>        -0.1364
     21 C17         1.0838   -0.4643   -0.8467 C.ar      1 <0>        -0.0521
     22 N3          3.4015   -0.2413   -1.6956 N.pl3     1 <0>         0.5528
     23 O3          3.2854   -1.2615   -2.3508 O.2       1 <0>        -0.3471
     24 O4          4.4482    0.3812   -1.7182 O.3       1 <0>        -0.3399
     25 F1          3.5644    2.0916   -0.1542 F         1 <0>        -0.0682
     26 H1         -1.6404   -8.7488    1.9174 H         1 <0>         0.0926
     27 H2         -1.6172  -10.1824    0.8626 H         1 <0>         0.0750
     28 H3         -0.6363   -8.7562    0.4477 H         1 <0>         0.0936
     29 H4         -2.6819   -8.8665   -0.9494 H         1 <0>         0.1061
     30 H5         -4.8992   -8.5880    0.1251 H         1 <0>         0.0669
     31 H6         -4.1066  -10.0842    0.6742 H         1 <0>         0.0866
     32 H7         -4.1299   -8.6506    1.7290 H         1 <0>         0.0892
     33 H8         -4.2984   -6.7393   -1.0687 H         1 <0>         0.2350
     34 H9         -5.7685   -4.7474   -0.4553 H         1 <0>         0.1346
     35 H10        -5.7851   -2.2962   -0.2667 H         1 <0>         0.1367
     36 H11        -3.6693   -1.0525   -0.1249 H         1 <0>         0.1214
     37 H12        -1.4947   -4.7401   -0.3724 H         1 <0>         0.1929
     38 H13        -2.0222   -0.2528    0.0467 H         1 <0>         0.2396
     39 H14        -0.6655    1.5081    1.2737 H         1 <0>         0.1468
     40 H15         1.4519    2.7612    1.2242 H         1 <0>         0.1621
     41 H16         0.9824   -1.3713   -1.4242 H         1 <0>         0.2005
@<TRIPOS>BOND
     1    1    2 1
     2    1   26 1
     3    1   27 1
     4    1   28 1
     5    2    3 1
     6    2    4 1
     7    2   29 1
     8    3   30 1
     9    3   31 1
    10    3   32 1
    11    4    5 2
    12    4    6 am
    13    6    7 1
    14    6   33 1
    15    7   12 ar
    16    7    8 ar
    17    8    9 ar
    18    8   34 1
    19    9   10 ar
    20    9   35 1
    21   10   11 ar
    22   10   36 1
    23   11   12 ar
    24   11   13 1
    25   12   37 1
    26   13   14 2
    27   13   15 am
    28   15   16 1
    29   15   38 1
    30   16   21 ar
    31   16   17 ar
    32   17   18 ar
    33   17   39 1
    34   18   19 ar
    35   18   40 1
    36   19   20 ar
    37   19   25 1
    38   20   21 ar
    39   20   22 1
    40   21   41 1
    41   22   23 2
    42   22   24 1
@<TRIPOS>MOLECULE
ZINC00464378
   44    45     0     0     0
SMALL
USER_CHARGES

@<TRIPOS>ATOM
      1 C1          0.5963    4.3035    0.1354 C.3       1 <0>        -0.2077
      2 C2          0.0893    3.8215    1.4962 C.3       1 <0>        -0.1388
      3 C3         -0.1707    5.0283    2.4001 C.3       1 <0>        -0.1932
      4 C4         -1.1907    3.0481    1.3102 C.2       1 <0>         0.3032
      5 O1         -2.2105    3.4250    1.8478 O.2       1 <0>        -0.3416
      6 N1         -1.2009    1.9346    0.5511 N.am      1 <0>        -0.3309
      7 C5         -2.3630    1.1599    0.4608 C.ar      1 <0>         0.0552
      8 C6         -2.2700   -0.2231    0.3583 C.ar      1 <0>        -0.1387
      9 C7         -3.4148   -0.9932    0.2746 C.ar      1 <0>        -0.1192
     10 C8         -4.6577   -0.3932    0.2808 C.ar      1 <0>        -0.1237
     11 C9         -4.7617    0.9955    0.3777 C.ar      1 <0>        -0.1161
     12 C10        -3.6063    1.7723    0.4679 C.ar      1 <0>        -0.0645
     13 C11        -6.0916    1.6410    0.3841 C.2       1 <0>         0.3487
     14 O2         -6.1798    2.8503    0.4681 O.2       1 <0>        -0.3370
     15 N2         -7.2063    0.8884    0.2968 N.am      1 <0>        -0.3263
     16 C12        -8.4529    1.5000    0.1956 C.ar      1 <0>         0.0975
     17 C13        -9.5688    0.9013    0.7744 C.ar      1 <0>        -0.1811
     18 C14       -10.7930    1.5002    0.6818 C.ar      1 <0>        -0.0718
     19 C15       -10.9266    2.7131   -0.0059 C.ar      1 <0>        -0.1827
     20 C16        -9.8022    3.3091   -0.5911 C.ar      1 <0>        -0.0469
     21 C17        -8.5810    2.7057   -0.4890 C.ar      1 <0>        -0.1460
     22 C18       -12.2413    3.3581   -0.1126 C.2       1 <0>         0.2686
     23 O3        -12.3549    4.4087   -0.7083 O.2       1 <0>        -0.2940
     24 C19       -13.4496    2.7149    0.5179 C.3       1 <0>        -0.2538
     25 H1          1.5221    4.8628    0.2699 H         1 <0>         0.0863
     26 H2          0.7815    3.4438   -0.5086 H         1 <0>         0.0667
     27 H3         -0.1536    4.9471   -0.3245 H         1 <0>         0.0903
     28 H4          0.8392    3.1779    1.9561 H         1 <0>         0.1056
     29 H5         -0.5318    4.6849    3.3695 H         1 <0>         0.0921
     30 H6          0.7551    5.5876    2.5346 H         1 <0>         0.0742
     31 H7         -0.9205    5.6719    1.9402 H         1 <0>         0.0936
     32 H8         -0.4029    1.6700    0.0673 H         1 <0>         0.2342
     33 H9         -1.3001   -0.6980    0.3485 H         1 <0>         0.1330
     34 H10        -3.3363   -2.0677    0.1996 H         1 <0>         0.1355
     35 H11        -5.5497   -0.9980    0.2104 H         1 <0>         0.1234
     36 H12        -3.6805    2.8471    0.5434 H         1 <0>         0.1916
     37 H13        -7.1400   -0.0793    0.3045 H         1 <0>         0.2350
     38 H14        -9.4656   -0.0362    1.3007 H         1 <0>         0.1314
     39 H15       -11.6572    1.0374    1.1348 H         1 <0>         0.1344
     40 H16        -9.9006    4.2444   -1.1220 H         1 <0>         0.1568
     41 H17        -7.7134    3.1647   -0.9396 H         1 <0>         0.1653
     42 H18       -13.5505    3.0439    1.4568 H         1 <0>         0.0990
     43 H19       -14.3397    2.9738   -0.0555 H         1 <0>         0.1054
     44 H20       -13.3233    1.6323    0.5238 H         1 <0>         0.0870
@<TRIPOS>BOND
     1    1    2 1
     2    1   25 1
     3    1   26 1
     4    1   27 1
     5    2    3 1
     6    2    4 1
     7    2   28 1
     8    3   29 1
     9    3   30 1
    10    3   31 1
    11    4    5 2
    12    4    6 am
    13    6    7 1
    14    6   32 1
    15    7   12 ar
    16    7    8 ar
    17    8    9 ar
    18    8   33 1
    19    9   10 ar
    20    9   34 1
    21   10   11 ar
    22   10   35 1
    23   11   12 ar
    24   11   13 1
    25   12   36 1
    26   13   14 2
    27   13   15 am
    28   15   16 1
    29   15   37 1
    30   16   21 ar
    31   16   17 ar
    32   17   18 ar
    33   17   38 1
    34   18   19 ar
    35   18   39 1
    36   19   20 ar
    37   19   22 1
    38   20   21 ar
    39   20   40 1
    40   21   41 1
    41   22   23 2
    42   22   24 1
    43   24   42 1
    44   24   43 1
    45   24   44 1
@<TRIPOS>MOLECULE
ZINC00464766
   38    39     0     0     0
SMALL
USER_CHARGES

@<TRIPOS>ATOM
      1 C1         -5.4855   -2.9744    0.5382 C.3       1 <0>        -0.1678
      2 C2         -5.8600   -1.5173    0.4510 C.2       1 <0>         0.0648
      3 C3         -7.1739   -1.1484    0.4840 C.2       1 <0>        -0.3052
      4 C4         -7.4992    0.2168    0.4007 C.2       1 <0>         0.3300
      5 O1         -8.6632    0.5813    0.4276 O.2       1 <0>        -0.3627
      6 N1         -6.4988    1.1169    0.2906 N.am      1 <0>        -0.2698
      7 H1         -6.7066    2.0932    0.2298 H         1 <0>         0.2591
      8 C5         -5.2058    0.6903    0.2627 C.2       1 <0>        -0.0179
      9 N2         -4.9097   -0.5931    0.3360 N.2       1 <0>        -0.2745
     10 S1         -3.9068    1.8720    0.1188 S.3       1 <0>         0.3215
     11 C6         -2.4734    0.7668    0.1333 C.3       1 <0>        -0.3039
     12 C7         -1.2104    1.5807    0.0175 C.2       1 <0>         0.3129
     13 O2         -1.2731    2.7890   -0.0665 O.2       1 <0>        -0.3336
     14 N3         -0.0111    0.9658    0.0074 N.am      1 <0>        -0.3204
     15 C8          1.1645    1.7252   -0.0084 C.ar      1 <0>         0.0410
     16 C9          2.2882    1.2805    0.6783 C.ar      1 <0>        -0.1287
     17 C10         3.4533    2.0241    0.6620 C.ar      1 <0>        -0.1290
     18 C11         3.5056    3.2185   -0.0275 C.ar      1 <0>        -0.0911
     19 C12         2.3807    3.6767   -0.7161 C.ar      1 <0>        -0.0958
     20 C13         1.2062    2.9231   -0.7039 C.ar      1 <0>        -0.0649
     21 C14         2.4335    4.9552   -1.4547 C.2       1 <0>         0.3477
     22 O3          1.4535    5.3520   -2.0528 O.2       1 <0>        -0.3503
     23 O4          3.5684    5.6808   -1.4650 O.3       1 <0>        -0.2689
     24 C15         3.5478    6.9262   -2.2111 C.3       1 <0>        -0.0505
     25 H2         -5.4415   -3.3989   -0.4648 H         1 <0>         0.0984
     26 H3         -4.5109   -3.0710    1.0167 H         1 <0>         0.0951
     27 H4         -6.2331   -3.5071    1.1258 H         1 <0>         0.0938
     28 H5         -7.9509   -1.8933    0.5724 H         1 <0>         0.1687
     29 H6         -2.5388    0.0760   -0.7073 H         1 <0>         0.1416
     30 H7         -2.4584    0.2034    1.0663 H         1 <0>         0.1421
     31 H8          0.0373   -0.0030    0.0069 H         1 <0>         0.2370
     32 H9          2.2522    0.3487    1.2230 H         1 <0>         0.1329
     33 H10         4.3244    1.6713    1.1941 H         1 <0>         0.1389
     34 H11         4.4164    3.7988   -0.0341 H         1 <0>         0.1506
     35 H12         0.3330    3.2721   -1.2349 H         1 <0>         0.1885
     36 H13         4.5218    7.4100   -2.1375 H         1 <0>         0.1027
     37 H14         3.3231    6.7192   -3.2574 H         1 <0>         0.0828
     38 H15         2.7831    7.5843   -1.7986 H         1 <0>         0.0846
@<TRIPOS>BOND
     1    1    2 1
     2    1   25 1
     3    1   26 1
     4    1   27 1
     5    2    9 1
     6    2    3 2
     7    3    4 1
     8    3   28 1
     9    4    5 2
    10    4    6 am
    11    6    7 1
    12    6    8 1
    13    8    9 2
    14    8   10 1
    15   10   11 1
    16   11   12 1
    17   11   29 1
    18   11   30 1
    19   12   13 2
    20   12   14 am
    21   14   15 1
    22   14   31 1
    23   15   20 ar
    24   15   16 ar
    25   16   17 ar
    26   16   32 1
    27   17   18 ar
    28   17   33 1
    29   18   19 ar
    30   18   34 1
    31   19   20 ar
    32   19   21 1
    33   20   35 1
    34   21   22 2
    35   21   23 1
    36   23   24 1
    37   24   36 1
    38   24   37 1
    39   24   38 1
@<TRIPOS>MOLECULE
ZINC00464766
   38    39     0     0     0
SMALL
USER_CHARGES

@<TRIPOS>ATOM
      1 C1         -5.4865   -2.9757    0.5187 C.3       1 <0>        -0.1718
      2 C2         -5.8607   -1.5181    0.4384 C.ar      1 <0>         0.1034
      3 C3         -7.1743   -1.1488    0.4772 C.ar      1 <0>        -0.4062
      4 C4         -7.4986    0.2177    0.4131 C.ar      1 <0>         0.2339
      5 O1         -8.6623    0.5826    0.4454 O.3       1 <0>        -0.1697
      6 N1         -6.4982    1.1178    0.3027 N.ar      1 <0>        -0.2498
      7 H1         -9.2596   -0.2151    0.5290 H         1 <0>         0.2664
      8 C5         -5.2058    0.6903    0.2627 C.ar      1 <0>        -0.0408
      9 N2         -4.9100   -0.5935    0.3298 N.ar      1 <0>        -0.2926
     10 S1         -3.9068    1.8720    0.1188 S.3       1 <0>         0.3792
     11 C6         -2.4734    0.7668    0.1333 C.3       1 <0>        -0.3262
     12 C7         -1.2104    1.5807    0.0175 C.2       1 <0>         0.3143
     13 O2         -1.2731    2.7890   -0.0665 O.2       1 <0>        -0.3326
     14 N3         -0.0111    0.9658    0.0074 N.am      1 <0>        -0.3240
     15 C8          1.1645    1.7252   -0.0084 C.ar      1 <0>         0.0442
     16 C9          2.2882    1.2805    0.6783 C.ar      1 <0>        -0.1309
     17 C10         3.4533    2.0241    0.6620 C.ar      1 <0>        -0.1299
     18 C11         3.5056    3.2185   -0.0275 C.ar      1 <0>        -0.0936
     19 C12         2.3807    3.6767   -0.7161 C.ar      1 <0>        -0.0961
     20 C13         1.2062    2.9231   -0.7039 C.ar      1 <0>        -0.0649
     21 C14         2.4335    4.9552   -1.4547 C.2       1 <0>         0.3474
     22 O3          1.4535    5.3520   -2.0528 O.2       1 <0>        -0.3494
     23 O4          3.5684    5.6808   -1.4650 O.3       1 <0>        -0.2697
     24 C15         3.5478    6.9262   -2.2111 C.3       1 <0>        -0.0505
     25 H2         -5.4409   -3.3950   -0.4865 H         1 <0>         0.0987
     26 H3         -4.5128   -3.0750    0.9983 H         1 <0>         0.1000
     27 H4         -6.2352   -3.5114    1.1022 H         1 <0>         0.0875
     28 H5         -7.9515   -1.8940    0.5607 H         1 <0>         0.1393
     29 H6         -2.5388    0.0760   -0.7073 H         1 <0>         0.1359
     30 H7         -2.4584    0.2034    1.0663 H         1 <0>         0.1362
     31 H8          0.0373   -0.0030    0.0069 H         1 <0>         0.2355
     32 H9          2.2522    0.3487    1.2230 H         1 <0>         0.1320
     33 H10         4.3244    1.6713    1.1941 H         1 <0>         0.1372
     34 H11         4.4164    3.7988   -0.0341 H         1 <0>         0.1491
     35 H12         0.3330    3.2721   -1.2349 H         1 <0>         0.1899
     36 H13         4.5218    7.4100   -2.1375 H         1 <0>         0.1016
     37 H14         3.3231    6.7192   -3.2574 H         1 <0>         0.0823
     38 H15         2.7831    7.5843   -1.7986 H         1 <0>         0.0846
@<TRIPOS>BOND
     1    1    2 1
     2    1   25 1
     3    1   26 1
     4    1   27 1
     5    2    3 ar
     6    2    9 ar
     7    3   28 1
     8    3    4 ar
     9    4    6 ar
    10    4    5 1
    11    5    7 1
    12    6    8 ar
    13    8   10 1
    14    8    9 ar
    15   10   11 1
    16   11   12 1
    17   11   29 1
    18   11   30 1
    19   12   13 2
    20   12   14 am
    21   14   15 1
    22   14   31 1
    23   15   20 ar
    24   15   16 ar
    25   16   17 ar
    26   16   32 1
    27   17   18 ar
    28   17   33 1
    29   18   19 ar
    30   18   34 1
    31   19   20 ar
    32   19   21 1
    33   20   35 1
    34   21   22 2
    35   21   23 1
    36   23   24 1
    37   24   36 1
    38   24   37 1
    39   24   38 1
@<TRIPOS>MOLECULE
ZINC00464766
   38    39     0     0     0
SMALL
USER_CHARGES

@<TRIPOS>ATOM
      1 C1         -5.4865   -2.9757    0.5187 C.3       1 <0>        -0.1718
      2 C2         -5.8607   -1.5181    0.4384 C.ar      1 <0>         0.1034
      3 C3         -7.1743   -1.1488    0.4772 C.ar      1 <0>        -0.4062
      4 C4         -7.4986    0.2177    0.4131 C.ar      1 <0>         0.2339
      5 O1         -8.6623    0.5826    0.4454 O.3       1 <0>        -0.1697
      6 N1         -6.4982    1.1178    0.3027 N.ar      1 <0>        -0.2498
      7 H1         -9.2596   -0.2151    0.5290 H         1 <0>         0.2664
      8 C5         -5.2058    0.6903    0.2627 C.ar      1 <0>        -0.0408
      9 N2         -4.9100   -0.5935    0.3298 N.ar      1 <0>        -0.2926
     10 S1         -3.9068    1.8720    0.1188 S.3       1 <0>         0.3792
     11 C6         -2.4734    0.7668    0.1333 C.3       1 <0>        -0.3262
     12 C7         -1.2104    1.5807    0.0175 C.2       1 <0>         0.3143
     13 O2         -1.2731    2.7890   -0.0665 O.2       1 <0>        -0.3326
     14 N3         -0.0111    0.9658    0.0074 N.am      1 <0>        -0.3240
     15 C8          1.1645    1.7252   -0.0084 C.ar      1 <0>         0.0442
     16 C9          2.2882    1.2805    0.6783 C.ar      1 <0>        -0.1309
     17 C10         3.4533    2.0241    0.6620 C.ar      1 <0>        -0.1299
     18 C11         3.5056    3.2185   -0.0275 C.ar      1 <0>        -0.0936
     19 C12         2.3807    3.6767   -0.7161 C.ar      1 <0>        -0.0961
     20 C13         1.2062    2.9231   -0.7039 C.ar      1 <0>        -0.0649
     21 C14         2.4335    4.9552   -1.4547 C.2       1 <0>         0.3474
     22 O3          1.4535    5.3520   -2.0528 O.2       1 <0>        -0.3494
     23 O4          3.5684    5.6808   -1.4650 O.3       1 <0>        -0.2697
     24 C15         3.5478    6.9262   -2.2111 C.3       1 <0>        -0.0505
     25 H2         -5.4409   -3.3950   -0.4865 H         1 <0>         0.0987
     26 H3         -4.5128   -3.0750    0.9983 H         1 <0>         0.1000
     27 H4         -6.2352   -3.5114    1.1022 H         1 <0>         0.0875
     28 H5         -7.9515   -1.8940    0.5607 H         1 <0>         0.1393
     29 H6         -2.5388    0.0760   -0.7073 H         1 <0>         0.1359
     30 H7         -2.4584    0.2034    1.0663 H         1 <0>         0.1362
     31 H8          0.0373   -0.0030    0.0069 H         1 <0>         0.2355
     32 H9          2.2522    0.3487    1.2230 H         1 <0>         0.1320
     33 H10         4.3244    1.6713    1.1941 H         1 <0>         0.1372
     34 H11         4.4164    3.7988   -0.0341 H         1 <0>         0.1491
     35 H12         0.3330    3.2721   -1.2349 H         1 <0>         0.1899
     36 H13         4.5218    7.4100   -2.1375 H         1 <0>         0.1016
     37 H14         3.3231    6.7192   -3.2574 H         1 <0>         0.0823
     38 H15         2.7831    7.5843   -1.7986 H         1 <0>         0.0846
@<TRIPOS>BOND
     1    1    2 1
     2    1   25 1
     3    1   26 1
     4    1   27 1
     5    2    3 ar
     6    2    9 ar
     7    3   28 1
     8    3    4 ar
     9    4    6 ar
    10    4    5 1
    11    5    7 1
    12    6    8 ar
    13    8   10 1
    14    8    9 ar
    15   10   11 1
    16   11   12 1
    17   11   29 1
    18   11   30 1
    19   12   13 2
    20   12   14 am
    21   14   15 1
    22   14   31 1
    23   15   20 ar
    24   15   16 ar
    25   16   17 ar
    26   16   32 1
    27   17   18 ar
    28   17   33 1
    29   18   19 ar
    30   18   34 1
    31   19   20 ar
    32   19   21 1
    33   20   35 1
    34   21   22 2
    35   21   23 1
    36   23   24 1
    37   24   36 1
    38   24   37 1
    39   24   38 1
@<TRIPOS>MOLECULE
ZINC00466138
   44    45     0     0     0
SMALL
USER_CHARGES

@<TRIPOS>ATOM
      1 C1         -2.1799    1.0897    0.9575 C.3       1 <0>        -0.1756
      2 C2         -0.9359    1.9344    0.8582 C.ar      1 <0>        -0.0328
      3 C3          0.3094    1.3484    0.9919 C.ar      1 <0>        -0.1635
      4 C4          1.4525    2.1215    0.9065 C.ar      1 <0>        -0.0338
      5 C5          1.3534    3.4800    0.6760 C.ar      1 <0>        -0.1554
      6 C6          0.1052    4.0703    0.5415 C.ar      1 <0>         0.0994
      7 C7         -1.0405    3.2933    0.6333 C.ar      1 <0>        -0.2348
      8 O1          0.0049    5.4074    0.3199 O.3       1 <0>        -0.1760
      9 C8         -1.3024    5.9270    0.0685 C.3       1 <0>         0.0101
     10 H1         -1.8821    5.1956   -0.4945 H         1 <0>         0.1064
     11 C9         -2.0006    6.2164    1.3988 C.3       1 <0>        -0.2420
     12 C10        -1.1917    7.2013   -0.7284 C.2       1 <0>         0.3012
     13 O2         -0.1008    7.6230   -1.0495 O.2       1 <0>        -0.3074
     14 N1         -2.3050    7.8724   -1.0842 N.am      1 <0>        -0.3331
     15 C11        -2.2098    8.9964   -1.9122 C.ar      1 <0>         0.1234
     16 C12        -3.1011   10.0504   -1.7598 C.ar      1 <0>        -0.1892
     17 C13        -3.0003   11.1612   -2.5743 C.ar      1 <0>        -0.0071
     18 C14        -2.0212   11.2191   -3.5491 C.ar      1 <0>        -0.7820
     19 C15        -1.1361   10.1686   -3.7074 C.ar      1 <0>        -0.0070
     20 C16        -1.2274    9.0578   -2.8918 C.ar      1 <0>        -0.1547
     21 S1         -1.9009   12.6347   -4.5913 S.o2      1 <0>         2.7635
     22 O3         -2.4979   13.7123   -3.8831 O.2       1 <0>        -0.9188
     23 O4         -0.5604   12.6810   -5.0603 O.2       1 <0>        -0.9153
     24 N2         -2.8557   12.3512   -5.9144 N.pl3     1 <0>        -0.9320
     25 C17         2.8079    1.4807    1.0594 C.3       1 <0>        -0.1750
     26 H2         -2.5110    1.0511    1.9953 H         1 <0>         0.0879
     27 H3         -2.9658    1.5265    0.3414 H         1 <0>         0.0787
     28 H4         -1.9627    0.0805    0.6076 H         1 <0>         0.0851
     29 H5          0.3891    0.2858    1.1677 H         1 <0>         0.1328
     30 H6          2.2468    4.0827    0.6050 H         1 <0>         0.1493
     31 H7         -2.0134    3.7505    0.5286 H         1 <0>         0.1299
     32 H8         -2.0806    5.2947    1.9752 H         1 <0>         0.1005
     33 H9         -1.4209    6.9479    1.9618 H         1 <0>         0.1071
     34 H10        -2.9977    6.6128    1.2071 H         1 <0>         0.0754
     35 H11        -3.1723    7.5762   -0.7663 H         1 <0>         0.2351
     36 H12        -3.8693   10.0035   -1.0021 H         1 <0>         0.1368
     37 H13        -3.6897   11.9836   -2.4527 H         1 <0>         0.1548
     38 H14        -0.3723   10.2169   -4.4695 H         1 <0>         0.1585
     39 H15        -0.5353    8.2379   -3.0155 H         1 <0>         0.1688
     40 H16        -3.3452   11.5172   -5.9894 H         1 <0>         0.2286
     41 H17        -2.9254   13.0192   -6.6143 H         1 <0>         0.2433
     42 H18         3.1708    1.1609    0.0826 H         1 <0>         0.0897
     43 H19         3.5044    2.2016    1.4876 H         1 <0>         0.0860
     44 H20         2.7288    0.6162    1.7185 H         1 <0>         0.0832
@<TRIPOS>BOND
     1    1    2 1
     2    1   26 1
     3    1   27 1
     4    1   28 1
     5    2    7 ar
     6    2    3 ar
     7    3    4 ar
     8    3   29 1
     9    4    5 ar
    10    4   25 1
    11    5    6 ar
    12    5   30 1
    13    6    7 ar
    14    6    8 1
    15    7   31 1
    16    8    9 1
    17    9   10 1
    18    9   11 1
    19    9   12 1
    20   11   32 1
    21   11   33 1
    22   11   34 1
    23   12   13 2
    24   12   14 am
    25   14   15 1
    26   14   35 1
    27   15   20 ar
    28   15   16 ar
    29   16   17 ar
    30   16   36 1
    31   17   18 ar
    32   17   37 1
    33   18   19 ar
    34   18   21 1
    35   19   20 ar
    36   19   38 1
    37   20   39 1
    38   21   22 2
    39   21   23 2
    40   21   24 1
    41   24   40 1
    42   24   41 1
    43   25   42 1
    44   25   43 1
    45   25   44 1
@<TRIPOS>MOLECULE
ZINC00466139
   44    45     0     0     0
SMALL
USER_CHARGES

@<TRIPOS>ATOM
      1 C1          2.0050   -8.8472    1.6170 C.3       1 <0>        -0.1756
      2 C2          3.1508   -8.0274    1.0822 C.ar      1 <0>        -0.0328
      3 C3          4.4191   -8.5739    1.0155 C.ar      1 <0>        -0.1635
      4 C4          5.4725   -7.8243    0.5254 C.ar      1 <0>        -0.0337
      5 C5          5.2600   -6.5271    0.1006 C.ar      1 <0>        -0.1553
      6 C6          3.9882   -5.9766    0.1662 C.ar      1 <0>         0.0995
      7 C7          2.9341   -6.7288    0.6637 C.ar      1 <0>        -0.2347
      8 O1          3.7766   -4.7006   -0.2511 O.3       1 <0>        -0.1762
      9 C8          2.4710   -4.1582   -0.0430 C.3       1 <0>         0.0103
     10 H1          2.0650   -4.5379    0.8947 H         1 <0>         0.1042
     11 C9          1.5571   -4.5708   -1.1986 C.3       1 <0>        -0.2410
     12 C10         2.5556   -2.6548    0.0185 C.2       1 <0>         0.3012
     13 O2          3.6118   -2.0977   -0.1940 O.2       1 <0>        -0.3072
     14 N1          1.4576   -1.9294    0.3094 N.am      1 <0>        -0.3328
     15 C11         1.5088   -0.5320    0.2593 C.ar      1 <0>         0.1233
     16 C12         2.3245    0.1016   -0.6690 C.ar      1 <0>        -0.1547
     17 C13         2.3724    1.4811   -0.7163 C.ar      1 <0>        -0.0073
     18 C14         1.6093    2.2313    0.1596 C.ar      1 <0>        -0.7818
     19 C15         0.7961    1.6034    1.0851 C.ar      1 <0>        -0.0073
     20 C16         0.7437    0.2243    1.1375 C.ar      1 <0>        -0.1890
     21 S1          1.6733    3.9910    0.0961 S.o2      1 <0>         2.7634
     22 O3          1.2835    4.4581    1.3802 O.2       1 <0>        -0.9187
     23 O4          2.9216    4.3310   -0.4917 O.2       1 <0>        -0.9152
     24 N2          0.5008    4.4857   -0.9635 N.pl3     1 <0>        -0.9320
     25 C17         6.8536   -8.4231    0.4540 C.3       1 <0>        -0.1749
     26 H2          1.9263   -8.7023    2.6944 H         1 <0>         0.0881
     27 H3          1.0778   -8.5309    1.1391 H         1 <0>         0.0787
     28 H4          2.1821   -9.9015    1.4041 H         1 <0>         0.0850
     29 H5          4.5874   -9.5879    1.3470 H         1 <0>         0.1329
     30 H6          6.0830   -5.9421   -0.2824 H         1 <0>         0.1492
     31 H7          1.9440   -6.3010    0.7199 H         1 <0>         0.1298
     32 H8          1.4959   -5.6581   -1.2430 H         1 <0>         0.1006
     33 H9          0.5613   -4.1570   -1.0399 H         1 <0>         0.0781
     34 H10         1.9631   -4.1911   -2.1362 H         1 <0>         0.1049
     35 H11         0.6319   -2.3760    0.5536 H         1 <0>         0.2347
     36 H12         2.9204   -0.4838   -1.3536 H         1 <0>         0.1687
     37 H13         3.0099    1.9744   -1.4350 H         1 <0>         0.1586
     38 H14         0.2010    2.1921    1.7676 H         1 <0>         0.1549
     39 H15         0.1081   -0.2655    1.8603 H         1 <0>         0.1370
     40 H16        -0.0587    3.8300   -1.4085 H         1 <0>         0.2286
     41 H17         0.3734    5.4311   -1.1392 H         1 <0>         0.2433
     42 H18         7.3843   -8.2246    1.3852 H         1 <0>         0.0901
     43 H19         6.7755   -9.4997    0.3028 H         1 <0>         0.0831
     44 H20         7.4000   -7.9781   -0.3776 H         1 <0>         0.0858
@<TRIPOS>BOND
     1    1    2 1
     2    1   26 1
     3    1   27 1
     4    1   28 1
     5    2    7 ar
     6    2    3 ar
     7    3    4 ar
     8    3   29 1
     9    4    5 ar
    10    4   25 1
    11    5    6 ar
    12    5   30 1
    13    6    7 ar
    14    6    8 1
    15    7   31 1
    16    8    9 1
    17    9   10 1
    18    9   11 1
    19    9   12 1
    20   11   32 1
    21   11   33 1
    22   11   34 1
    23   12   13 2
    24   12   14 am
    25   14   15 1
    26   14   35 1
    27   15   20 ar
    28   15   16 ar
    29   16   17 ar
    30   16   36 1
    31   17   18 ar
    32   17   37 1
    33   18   19 ar
    34   18   21 1
    35   19   20 ar
    36   19   38 1
    37   20   39 1
    38   21   22 2
    39   21   23 2
    40   21   24 1
    41   24   40 1
    42   24   41 1
    43   25   42 1
    44   25   43 1
    45   25   44 1
@<TRIPOS>MOLECULE
ZINC00466653
   42    43     0     0     0
SMALL
USER_CHARGES

@<TRIPOS>ATOM
      1 C1          3.2062    2.1698    1.4024 C.3       1 <0>        -0.1963
      2 C2          2.1952    1.2385    0.7304 C.3       1 <0>        -0.1887
      3 C3          0.8648    1.9377    0.6194 C.2       1 <0>         0.3019
      4 O1          0.7378    3.0693    1.0366 O.2       1 <0>        -0.3498
      5 N1         -0.1838    1.3053    0.0564 N.am      1 <0>        -0.3302
      6 C4         -1.4376    1.9155    0.0373 C.ar      1 <0>         0.0911
      7 C5         -1.5356    3.2956   -0.1087 C.ar      1 <0>        -0.1391
      8 C6         -2.7720    3.9007   -0.1329 C.ar      1 <0>        -0.0854
      9 C7         -3.9290    3.1281    0.0001 C.ar      1 <0>        -0.1541
     10 C8         -3.8266    1.7426    0.1520 C.ar      1 <0>        -0.0431
     11 C9         -2.5873    1.1434    0.1700 C.ar      1 <0>        -0.1755
     12 C10        -5.2558    3.7738   -0.0201 C.2       1 <0>         0.3525
     13 O2         -6.2616    3.1003    0.0954 O.2       1 <0>        -0.3568
     14 N2         -5.3527    5.1101   -0.1666 N.am      1 <0>        -0.3114
     15 C11        -6.6016    5.7365   -0.0692 C.ar      1 <0>         0.0403
     16 C12        -7.6240    5.1407    0.6551 C.ar      1 <0>        -0.0537
     17 C13        -8.8554    5.7607    0.7497 C.ar      1 <0>        -0.1302
     18 C14        -9.0721    6.9746    0.1239 C.ar      1 <0>        -0.0535
     19 C15        -8.0582    7.5743   -0.5996 C.ar      1 <0>        -0.2120
     20 C16        -6.8189    6.9622   -0.6946 C.ar      1 <0>         0.0957
     21 O3         -5.8188    7.5538   -1.4009 O.3       1 <0>        -0.2141
     22 C17        -6.1137    8.8098   -2.0153 C.3       1 <0>        -0.0637
     23 N3         -9.9450    5.1240    1.5233 N.pl3     1 <0>         0.5543
     24 O4         -9.7557    4.0550    2.0755 O.2       1 <0>        -0.3484
     25 O5        -11.0310    5.6691    1.6077 O.3       1 <0>        -0.3661
     26 H1          4.1685    1.6641    1.4827 H         1 <0>         0.0755
     27 H2          3.3199    3.0743    0.8050 H         1 <0>         0.0902
     28 H3          2.8506    2.4343    2.3982 H         1 <0>         0.0929
     29 H4          2.0815    0.3339    1.3278 H         1 <0>         0.1033
     30 H5          2.5509    0.9740   -0.2654 H         1 <0>         0.1004
     31 H6         -0.0656    0.4275   -0.3390 H         1 <0>         0.2357
     32 H7         -0.6410    3.8925   -0.2074 H         1 <0>         0.1707
     33 H8         -2.8476    4.9716   -0.2508 H         1 <0>         0.1298
     34 H9         -4.7188    1.1426    0.2547 H         1 <0>         0.1608
     35 H10        -2.5075    0.0727    0.2869 H         1 <0>         0.1379
     36 H11        -4.5576    5.6380   -0.3395 H         1 <0>         0.2482
     37 H12        -7.4574    4.1928    1.1452 H         1 <0>         0.2100
     38 H13       -10.0362    7.4552    0.2003 H         1 <0>         0.1649
     39 H14        -8.2308    8.5224   -1.0872 H         1 <0>         0.1515
     40 H15        -6.9359    8.6854   -2.7200 H         1 <0>         0.0757
     41 H16        -6.3977    9.5313   -1.2493 H         1 <0>         0.0736
     42 H17        -5.2323    9.1708   -2.5454 H         1 <0>         0.1152
@<TRIPOS>BOND
     1    1    2 1
     2    1   26 1
     3    1   27 1
     4    1   28 1
     5    2    3 1
     6    2   29 1
     7    2   30 1
     8    3    4 2
     9    3    5 am
    10    5    6 1
    11    5   31 1
    12    6   11 ar
    13    6    7 ar
    14    7    8 ar
    15    7   32 1
    16    8    9 ar
    17    8   33 1
    18    9   10 ar
    19    9   12 1
    20   10   11 ar
    21   10   34 1
    22   11   35 1
    23   12   13 2
    24   12   14 am
    25   14   15 1
    26   14   36 1
    27   15   20 ar
    28   15   16 ar
    29   16   17 ar
    30   16   37 1
    31   17   18 ar
    32   17   23 1
    33   18   19 ar
    34   18   38 1
    35   19   20 ar
    36   19   39 1
    37   20   21 1
    38   21   22 1
    39   22   40 1
    40   22   41 1
    41   22   42 1
    42   23   24 2
    43   23   25 1
@<TRIPOS>MOLECULE
ZINC00466925
   41    43     0     0     0
SMALL
USER_CHARGES

@<TRIPOS>ATOM
      1 C1          3.2182   -1.0828    0.8545 C.2       1 <0>        -0.2325
      2 C2          4.0168    0.0464    1.0942 C.2       1 <0>        -0.1155
      3 C3          3.3593    1.1142    0.5534 C.2       1 <0>        -0.1307
      4 O1          2.2109    0.6641    0.0068 O.3       1 <0>        -0.0581
      5 C4          2.1222   -0.6603    0.1864 C.2       1 <0>        -0.0674
      6 C5          3.8208    2.5058    0.5643 C.2       1 <0>         0.3959
      7 O2          4.8804    2.7914    1.0905 O.2       1 <0>        -0.3348
      8 N1          3.0716    3.4688   -0.0083 N.am      1 <0>        -0.3220
      9 C6          3.4630    4.8079    0.0859 C.ar      1 <0>         0.1139
     10 C7          2.5044    5.8075    0.1908 C.ar      1 <0>        -0.1851
     11 C8          2.8946    7.1287    0.2888 C.ar      1 <0>        -0.0141
     12 C9          4.2376    7.4577    0.2716 C.ar      1 <0>        -0.7757
     13 C10         5.1944    6.4653    0.1616 C.ar      1 <0>        -0.0098
     14 C11         4.8112    5.1417    0.0689 C.ar      1 <0>        -0.1532
     15 S1          4.7309    9.1451    0.3897 S.o2      1 <0>         2.7608
     16 O3          3.6676    9.8351    1.0320 O.2       1 <0>        -0.9165
     17 O4          6.0574    9.1458    0.8993 O.2       1 <0>        -0.9170
     18 N2          4.8166    9.7392   -1.1537 N.pl3     1 <0>        -0.8764
     19 C12         3.6027    9.8423   -1.9674 C.3       1 <0>         0.0406
     20 C13         3.4928    8.6253   -2.9090 C.3       1 <0>        -0.1861
     21 C14         2.9045    9.2093   -4.2174 C.3       1 <0>        -0.1621
     22 C15         3.6068   10.5858   -4.3234 C.3       1 <0>        -0.1643
     23 C16         3.6752   11.0888   -2.8667 C.3       1 <0>        -0.1661
     24 H1          3.4385   -2.0984    1.1485 H         1 <0>         0.1647
     25 H2          4.9652    0.0674    1.6104 H         1 <0>         0.1781
     26 H3          1.3085   -1.2871   -0.1473 H         1 <0>         0.2033
     27 H4          2.2608    3.2329   -0.4857 H         1 <0>         0.2447
     28 H5          1.4552    5.5515    0.2001 H         1 <0>         0.1370
     29 H6          2.1499    7.9061    0.3753 H         1 <0>         0.1503
     30 H7          6.2425    6.7256    0.1485 H         1 <0>         0.1548
     31 H8          5.5589    4.3671   -0.0163 H         1 <0>         0.1710
     32 H9          5.6705   10.0190   -1.5190 H         1 <0>         0.2446
     33 H10         2.7252    9.8972   -1.3231 H         1 <0>         0.1128
     34 H11         4.4772    8.1947   -3.0923 H         1 <0>         0.0961
     35 H12         2.8204    7.8774   -2.4889 H         1 <0>         0.0863
     36 H13         1.8246    9.3320   -4.1344 H         1 <0>         0.0868
     37 H14         3.1584    8.5795   -5.0700 H         1 <0>         0.0871
     38 H15         3.0175   11.2686   -4.9355 H         1 <0>         0.0863
     39 H16         4.6096   10.4717   -4.7351 H         1 <0>         0.0861
     40 H17         2.8324   11.7482   -2.6594 H         1 <0>         0.0937
     41 H18         4.6135   11.6171   -2.6977 H         1 <0>         0.0924
@<TRIPOS>BOND
     1    1    5 2
     2    1    2 1
     3    1   24 1
     4    2    3 2
     5    2   25 1
     6    3    4 1
     7    3    6 1
     8    4    5 1
     9    5   26 1
    10    6    7 2
    11    6    8 am
    12    8    9 1
    13    8   27 1
    14    9   14 ar
    15    9   10 ar
    16   10   11 ar
    17   10   28 1
    18   11   12 ar
    19   11   29 1
    20   12   13 ar
    21   12   15 1
    22   13   14 ar
    23   13   30 1
    24   14   31 1
    25   15   16 2
    26   15   17 2
    27   15   18 1
    28   18   19 1
    29   18   32 1
    30   19   23 1
    31   19   20 1
    32   19   33 1
    33   20   21 1
    34   20   34 1
    35   20   35 1
    36   21   22 1
    37   21   36 1
    38   21   37 1
    39   22   23 1
    40   22   38 1
    41   22   39 1
    42   23   40 1
    43   23   41 1
@<TRIPOS>MOLECULE
ZINC00467851
   40    42     0     0     0
SMALL
USER_CHARGES

@<TRIPOS>ATOM
      1 C1          1.6467   -1.4207    0.1956 C.3       1 <0>        -0.2077
      2 C2          1.0416   -0.9448   -1.1266 C.3       1 <0>        -0.1393
      3 C3          0.6243   -2.1568   -1.9620 C.3       1 <0>        -0.1930
      4 C4         -0.1660   -0.0878   -0.8468 C.2       1 <0>         0.3059
      5 O1         -1.2534   -0.4143   -1.2735 O.2       1 <0>        -0.3511
      6 N1         -0.0377    1.0414   -0.1223 N.am      1 <0>        -0.3295
      7 C5         -1.1423    1.8821    0.0660 C.ar      1 <0>         0.0671
      8 C6         -0.9658    3.2581    0.1255 C.ar      1 <0>        -0.1544
      9 C7         -2.0555    4.0865    0.3060 C.ar      1 <0>        -0.1292
     10 C8         -3.3256    3.5436    0.4388 C.ar      1 <0>         0.0237
     11 C9         -3.5018    2.1683    0.3852 C.ar      1 <0>        -0.1092
     12 C10        -2.4135    1.3393    0.1991 C.ar      1 <0>        -0.1176
     13 O2         -4.3976    4.3594    0.6212 O.3       1 <0>        -0.1472
     14 C11        -4.8671    5.0439   -0.4522 C.ar      1 <0>         0.1112
     15 C12        -4.1932    4.9749   -1.6644 C.ar      1 <0>        -0.2034
     16 C13        -4.6612    5.6677   -2.7661 C.ar      1 <0>        -0.0200
     17 C14        -5.8116    6.4368   -2.6598 C.ar      1 <0>        -0.1769
     18 C15        -6.4985    6.5089   -1.4296 C.ar      1 <0>        -0.1014
     19 C16        -6.0263    5.8080   -0.3344 C.ar      1 <0>        -0.0885
     20 C17        -7.6566    7.3974   -1.6652 C.2       1 <0>         0.3594
     21 O3         -8.4922    7.7074   -0.8403 O.2       1 <0>        -0.2971
     22 N2         -7.6293    7.8040   -2.9472 N.am      1 <0>        -0.3557
     23 C18        -6.5744    7.2822   -3.5984 C.2       1 <0>         0.3618
     24 O4         -6.2962    7.4743   -4.7652 O.2       1 <0>        -0.3033
     25 H1          0.9071   -2.0033    0.7449 H         1 <0>         0.0888
     26 H2          2.5201   -2.0406   -0.0067 H         1 <0>         0.0877
     27 H3          1.9440   -0.5573    0.7908 H         1 <0>         0.0679
     28 H4          1.7812   -0.3622   -1.6758 H         1 <0>         0.1074
     29 H5          0.1933   -1.8178   -2.9040 H         1 <0>         0.0920
     30 H6          1.4978   -2.7767   -2.1644 H         1 <0>         0.0757
     31 H7         -0.1153   -2.7394   -1.4127 H         1 <0>         0.0914
     32 H8          0.8186    1.2700    0.2720 H         1 <0>         0.2357
     33 H9          0.0233    3.6805    0.0266 H         1 <0>         0.1370
     34 H10        -1.9189    5.1570    0.3478 H         1 <0>         0.1467
     35 H11        -4.4905    1.7463    0.4886 H         1 <0>         0.1512
     36 H12        -2.5509    0.2689    0.1566 H         1 <0>         0.1742
     37 H13        -3.2982    4.3762   -1.7475 H         1 <0>         0.1590
     38 H14        -4.1332    5.6101   -3.7064 H         1 <0>         0.1526
     39 H15        -6.5511    5.8561    0.6083 H         1 <0>         0.1642
     40 H16        -8.2843    8.3958   -3.3492 H         1 <0>         0.2636
@<TRIPOS>BOND
     1    1    2 1
     2    1   25 1
     3    1   26 1
     4    1   27 1
     5    2    3 1
     6    2    4 1
     7    2   28 1
     8    3   29 1
     9    3   30 1
    10    3   31 1
    11    4    5 2
    12    4    6 am
    13    6    7 1
    14    6   32 1
    15    7   12 ar
    16    7    8 ar
    17    8    9 ar
    18    8   33 1
    19    9   10 ar
    20    9   34 1
    21   10   11 ar
    22   10   13 1
    23   11   12 ar
    24   11   35 1
    25   12   36 1
    26   13   14 1
    27   14   19 ar
    28   14   15 ar
    29   15   16 ar
    30   15   37 1
    31   16   17 ar
    32   16   38 1
    33   17   23 1
    34   17   18 ar
    35   18   19 ar
    36   18   20 1
    37   19   39 1
    38   20   21 2
    39   20   22 am
    40   22   23 am
    41   22   40 1
    42   23   24 2
@<TRIPOS>MOLECULE
ZINC00468095
   43    45     0     0     0
SMALL
USER_CHARGES

@<TRIPOS>ATOM
      1 C1         14.0097    3.9143    0.3492 C.3       1 <0>        -0.2040
      2 C2         13.4080    4.6181   -0.8689 C.3       1 <0>        -0.0739
      3 C3         13.7816    3.8497   -2.1381 C.3       1 <0>        -0.2040
      4 C4         11.9079    4.6637   -0.7325 C.ar      1 <0>        -0.1023
      5 C5         11.2542    5.8817   -0.7042 C.ar      1 <0>        -0.0882
      6 C6          9.8791    5.9262   -0.5793 C.ar      1 <0>        -0.1462
      7 C7          9.1541    4.7474   -0.4822 C.ar      1 <0>         0.0866
      8 C8          9.8129    3.5267   -0.5051 C.ar      1 <0>        -0.2226
      9 C9         11.1876    3.4874   -0.6364 C.ar      1 <0>        -0.0846
     10 O1          7.8013    4.7885   -0.3593 O.3       1 <0>        -0.1802
     11 C10         7.1201    3.5359   -0.2643 C.3       1 <0>        -0.0328
     12 C11         5.6384    3.7783   -0.1348 C.2       1 <0>         0.3008
     13 O2          5.2081    4.9122   -0.1248 O.2       1 <0>        -0.3138
     14 N1          4.7915    2.7352   -0.0300 N.am      1 <0>        -0.3293
     15 C12         3.4145    2.9547   -0.0060 C.ar      1 <0>         0.0780
     16 C13         2.9053    4.0865    0.6191 C.ar      1 <0>        -0.1169
     17 C14         1.5419    4.3153    0.6497 C.ar      1 <0>        -0.0401
     18 C15         0.6764    3.4100    0.0518 C.ar      1 <0>        -0.1530
     19 C16         1.1899    2.2597   -0.5838 C.ar      1 <0>        -0.1178
     20 C17         2.5548    2.0377   -0.6097 C.ar      1 <0>        -0.0948
     21 C18         0.0153    1.5274   -1.1037 C.2       1 <0>         0.3597
     22 O3          0.0470    0.4794   -1.7167 O.2       1 <0>        -0.3010
     23 N2         -1.0940    2.2202   -0.7886 N.am      1 <0>        -0.3552
     24 C19        -0.7892    3.3369   -0.1036 C.2       1 <0>         0.3590
     25 O4         -1.5874    4.1522    0.3135 O.2       1 <0>        -0.2981
     26 H1         13.6195    2.8984    0.4113 H         1 <0>         0.0735
     27 H2         15.0947    3.8813    0.2505 H         1 <0>         0.0748
     28 H3         13.7435    4.4617    1.2534 H         1 <0>         0.0785
     29 H4         13.7982    5.6340   -0.9310 H         1 <0>         0.0942
     30 H5         13.3914    2.8339   -2.0759 H         1 <0>         0.0736
     31 H6         13.3530    4.3511   -3.0058 H         1 <0>         0.0788
     32 H7         14.8667    3.8167   -2.2367 H         1 <0>         0.0748
     33 H8         11.8190    6.7991   -0.7801 H         1 <0>         0.1374
     34 H9          9.3689    6.8778   -0.5575 H         1 <0>         0.1489
     35 H10         9.2512    2.6077   -0.4251 H         1 <0>         0.1264
     36 H11        11.7004    2.5372   -0.6594 H         1 <0>         0.1332
     37 H12         7.4774    2.9935    0.6111 H         1 <0>         0.0957
     38 H13         7.3150    2.9474   -1.1609 H         1 <0>         0.0985
     39 H14         5.1397    1.8317    0.0286 H         1 <0>         0.2366
     40 H15         3.5784    4.7915    1.0842 H         1 <0>         0.1787
     41 H16         1.1516    5.1963    1.1375 H         1 <0>         0.1569
     42 H17         2.9527    1.1588   -1.0953 H         1 <0>         0.1499
     43 H18        -1.9953    1.9489   -1.0229 H         1 <0>         0.2642
@<TRIPOS>BOND
     1    1    2 1
     2    1   26 1
     3    1   27 1
     4    1   28 1
     5    2    3 1
     6    2    4 1
     7    2   29 1
     8    3   30 1
     9    3   31 1
    10    3   32 1
    11    4    9 ar
    12    4    5 ar
    13    5    6 ar
    14    5   33 1
    15    6    7 ar
    16    6   34 1
    17    7    8 ar
    18    7   10 1
    19    8    9 ar
    20    8   35 1
    21    9   36 1
    22   10   11 1
    23   11   12 1
    24   11   37 1
    25   11   38 1
    26   12   13 2
    27   12   14 am
    28   14   15 1
    29   14   39 1
    30   15   20 ar
    31   15   16 ar
    32   16   17 ar
    33   16   40 1
    34   17   18 ar
    35   17   41 1
    36   18   24 1
    37   18   19 ar
    38   19   20 ar
    39   19   21 1
    40   20   42 1
    41   21   22 2
    42   21   23 am
    43   23   24 am
    44   23   43 1
    45   24   25 2
@<TRIPOS>MOLECULE
ZINC00469559
   41    42     0     0     0
SMALL
USER_CHARGES

@<TRIPOS>ATOM
      1 C1          8.3034    2.8970   -0.7286 C.3       1 <0>        -0.1926
      2 C2          7.2090    3.7006   -0.0233 C.3       1 <0>        -0.1397
      3 C3          7.0641    5.0662   -0.6978 C.3       1 <0>        -0.2063
      4 C4          5.9022    2.9553   -0.1121 C.2       1 <0>         0.3054
      5 O1          5.8512    1.8865   -0.6832 O.2       1 <0>        -0.3539
      6 N1          4.7902    3.4764    0.4432 N.am      1 <0>        -0.3277
      7 C5          3.5572    2.8326    0.2780 C.ar      1 <0>         0.0507
      8 C6          2.3938    3.5812    0.1567 C.ar      1 <0>        -0.1465
      9 C7          1.1787    2.9469   -0.0066 C.ar      1 <0>        -0.1080
     10 C8          1.1197    1.5599   -0.0497 C.ar      1 <0>         0.0352
     11 C9          2.2826    0.8111    0.0773 C.ar      1 <0>        -0.1405
     12 C10         3.4983    1.4458    0.2349 C.ar      1 <0>        -0.1107
     13 N2         -0.1126    0.9165   -0.2153 N.am      1 <0>        -0.3166
     14 C11        -1.0636    1.4718   -0.9923 C.2       1 <0>         0.3419
     15 O2         -0.8843    2.5703   -1.4811 O.2       1 <0>        -0.3437
     16 C12        -2.3247    0.7450   -1.2501 C.ar      1 <0>        -0.0867
     17 C13        -2.5314   -0.5190   -0.6950 C.ar      1 <0>        -0.1148
     18 C14        -3.7130   -1.1894   -0.9349 C.ar      1 <0>        -0.0782
     19 C15        -4.6871   -0.6167   -1.7333 C.ar      1 <0>        -0.0906
     20 C16        -4.4864    0.6336   -2.2908 C.ar      1 <0>        -0.0792
     21 C17        -3.3118    1.3173   -2.0543 C.ar      1 <0>        -0.0748
     22 N3         -5.9497   -1.3446   -1.9918 N.pl3     1 <0>         0.5452
     23 O3         -6.8092   -0.8428   -2.6939 O.2       1 <0>        -0.3479
     24 O4         -6.1292   -2.4454   -1.5024 O.3       1 <0>        -0.3508
     25 H1          8.0347    2.7583   -1.7758 H         1 <0>         0.0929
     26 H2          9.2486    3.4361   -0.6643 H         1 <0>         0.0740
     27 H3          8.4066    1.9241   -0.2480 H         1 <0>         0.0892
     28 H4          7.4778    3.8393    1.0239 H         1 <0>         0.1039
     29 H5          6.2844    5.6388   -0.1954 H         1 <0>         0.0689
     30 H6          8.0093    5.6053   -0.6336 H         1 <0>         0.0847
     31 H7          6.7954    4.9275   -1.7450 H         1 <0>         0.0902
     32 H8          4.8437    4.2972    0.9573 H         1 <0>         0.2328
     33 H9          2.4398    4.6597    0.1898 H         1 <0>         0.1348
     34 H10         0.2740    3.5291   -0.1013 H         1 <0>         0.1655
     35 H11         2.2362   -0.2675    0.0487 H         1 <0>         0.1334
     36 H12         4.4031    0.8637    0.3292 H         1 <0>         0.1693
     37 H13        -0.2833    0.0730    0.2322 H         1 <0>         0.2329
     38 H14        -1.7697   -0.9694   -0.0758 H         1 <0>         0.1423
     39 H15        -3.8762   -2.1654   -0.5021 H         1 <0>         0.1692
     40 H16        -5.2509    1.0752   -2.9128 H         1 <0>         0.1723
     41 H17        -3.1563    2.2931   -2.4900 H         1 <0>         0.1745
@<TRIPOS>BOND
     1    1    2 1
     2    1   25 1
     3    1   26 1
     4    1   27 1
     5    2    3 1
     6    2    4 1
     7    2   28 1
     8    3   29 1
     9    3   30 1
    10    3   31 1
    11    4    5 2
    12    4    6 am
    13    6    7 1
    14    6   32 1
    15    7   12 ar
    16    7    8 ar
    17    8    9 ar
    18    8   33 1
    19    9   10 ar
    20    9   34 1
    21   10   11 ar
    22   10   13 1
    23   11   12 ar
    24   11   35 1
    25   12   36 1
    26   13   14 am
    27   13   37 1
    28   14   15 2
    29   14   16 1
    30   16   21 ar
    31   16   17 ar
    32   17   18 ar
    33   17   38 1
    34   18   19 ar
    35   18   39 1
    36   19   20 ar
    37   19   22 1
    38   20   21 ar
    39   20   40 1
    40   21   41 1
    41   22   23 2
    42   22   24 1
@<TRIPOS>MOLECULE
ZINC00469975
   40    42     0     0     0
SMALL
USER_CHARGES

@<TRIPOS>ATOM
      1 C1         13.4080    4.6181   -0.8695 C.3       1 <0>        -0.1702
      2 C2         11.9079    4.6637   -0.7328 C.ar      1 <0>        -0.1039
      3 C3         11.1875    3.4872   -0.6358 C.ar      1 <0>        -0.0952
      4 C4          9.8125    3.5263   -0.5108 C.ar      1 <0>        -0.2161
      5 C5          9.1541    4.7474   -0.4822 C.ar      1 <0>         0.0825
      6 C6          9.8785    5.9258   -0.5849 C.ar      1 <0>        -0.0871
      7 C7         11.2542    5.8815   -0.7050 C.ar      1 <0>        -0.0936
      8 C8          9.1660    7.2536   -0.5604 C.3       1 <0>        -0.1693
      9 O1          7.8013    4.7885   -0.3593 O.3       1 <0>        -0.1796
     10 C9          7.1201    3.5359   -0.2643 C.3       1 <0>        -0.0331
     11 C10         5.6384    3.7783   -0.1348 C.2       1 <0>         0.3012
     12 O2          5.2081    4.9122   -0.1248 O.2       1 <0>        -0.3153
     13 N1          4.7915    2.7352   -0.0300 N.am      1 <0>        -0.3292
     14 C11         3.4145    2.9547   -0.0060 C.ar      1 <0>         0.0781
     15 C12         2.9053    4.0865    0.6191 C.ar      1 <0>        -0.1170
     16 C13         1.5419    4.3153    0.6497 C.ar      1 <0>        -0.0402
     17 C14         0.6764    3.4100    0.0518 C.ar      1 <0>        -0.1531
     18 C15         1.1899    2.2597   -0.5838 C.ar      1 <0>        -0.1177
     19 C16         2.5548    2.0377   -0.6097 C.ar      1 <0>        -0.0948
     20 C17         0.0153    1.5274   -1.1037 C.2       1 <0>         0.3597
     21 O3          0.0470    0.4794   -1.7167 O.2       1 <0>        -0.3009
     22 N2         -1.0940    2.2202   -0.7886 N.am      1 <0>        -0.3552
     23 C18        -0.7892    3.3369   -0.1036 C.2       1 <0>         0.3591
     24 O4         -1.5874    4.1522    0.3135 O.2       1 <0>        -0.2982
     25 H1         13.6756    4.5803   -1.9255 H         1 <0>         0.0852
     26 H2         13.8414    5.5097   -0.4165 H         1 <0>         0.0815
     27 H3         13.7920    3.7312   -0.3655 H         1 <0>         0.0800
     28 H4         11.7005    2.5371   -0.6581 H         1 <0>         0.1310
     29 H5          9.2503    2.6073   -0.4358 H         1 <0>         0.1261
     30 H6         11.8190    6.7989   -0.7812 H         1 <0>         0.1382
     31 H7          9.0881    7.6052    0.4683 H         1 <0>         0.0878
     32 H8          9.7273    7.9780   -1.1505 H         1 <0>         0.0773
     33 H9          8.1673    7.1378   -0.9815 H         1 <0>         0.1013
     34 H10         7.4774    2.9935    0.6111 H         1 <0>         0.0960
     35 H11         7.3150    2.9474   -1.1609 H         1 <0>         0.0984
     36 H12         5.1397    1.8317    0.0286 H         1 <0>         0.2368
     37 H13         3.5784    4.7915    1.0842 H         1 <0>         0.1786
     38 H14         1.1516    5.1963    1.1375 H         1 <0>         0.1569
     39 H15         2.9527    1.1588   -1.0953 H         1 <0>         0.1499
     40 H16        -1.9953    1.9489   -1.0229 H         1 <0>         0.2643
@<TRIPOS>BOND
     1    1    2 1
     2    1   25 1
     3    1   26 1
     4    1   27 1
     5    2    7 ar
     6    2    3 ar
     7    3    4 ar
     8    3   28 1
     9    4    5 ar
    10    4   29 1
    11    5    6 ar
    12    5    9 1
    13    6    7 ar
    14    6    8 1
    15    7   30 1
    16    8   31 1
    17    8   32 1
    18    8   33 1
    19    9   10 1
    20   10   11 1
    21   10   34 1
    22   10   35 1
    23   11   12 2
    24   11   13 am
    25   13   14 1
    26   13   36 1
    27   14   19 ar
    28   14   15 ar
    29   15   16 ar
    30   15   37 1
    31   16   17 ar
    32   16   38 1
    33   17   23 1
    34   17   18 ar
    35   18   19 ar
    36   18   20 1
    37   19   39 1
    38   20   21 2
    39   20   22 am
    40   22   23 am
    41   22   40 1
    42   23   24 2
@<TRIPOS>MOLECULE
ZINC00471237
   41    42     0     0     0
SMALL
USER_CHARGES

@<TRIPOS>ATOM
      1 C1          2.4327   -0.0204   -1.4722 C.3       1 <0>        -0.2062
      2 C2          2.3875    0.9730   -0.3094 C.3       1 <0>        -0.1048
      3 H1          2.4483    0.4308    0.6342 H         1 <0>         0.1148
      4 C3          3.5501    1.9257   -0.4172 C.ar      1 <0>        -0.0219
      5 C4          3.6890    2.7226   -1.5382 C.ar      1 <0>        -0.1005
      6 C5          4.7528    3.6000   -1.6350 C.ar      1 <0>        -0.0679
      7 C6          5.6835    3.6730   -0.6154 C.ar      1 <0>        -0.1072
      8 C7          5.5475    2.8723    0.5032 C.ar      1 <0>        -0.0699
      9 C8          4.4808    1.9987    0.6023 C.ar      1 <0>        -0.1274
     10 N1          6.8259    4.6081   -0.7217 N.pl3     1 <0>         0.5484
     11 O1          7.6462    4.6721    0.1764 O.2       1 <0>        -0.3571
     12 O2          6.9458    5.3136   -1.7074 O.3       1 <0>        -0.3547
     13 C9          1.0963    1.7483   -0.3610 C.2       1 <0>         0.3024
     14 O3          1.1180    2.9557   -0.4741 O.2       1 <0>        -0.3400
     15 N2         -0.0827    1.1000   -0.2813 N.am      1 <0>        -0.3259
     16 C10        -1.2798    1.8260   -0.2412 C.ar      1 <0>         0.0225
     17 C11        -1.3992    3.0104   -0.9533 C.ar      1 <0>        -0.1113
     18 C12        -2.5833    3.7221   -0.9168 C.ar      1 <0>        -0.1273
     19 C13        -3.6479    3.2630   -0.1627 C.ar      1 <0>        -0.1243
     20 C14        -3.5359    2.0870    0.5544 C.ar      1 <0>        -0.1113
     21 C15        -2.3531    1.3632    0.5191 C.ar      1 <0>         0.0310
     22 N3         -2.2371    0.1712    1.2455 N.am      1 <0>        -0.3334
     23 C16        -3.3058   -0.6376    1.3883 C.2       1 <0>         0.2993
     24 O4         -4.3870   -0.2957    0.9580 O.2       1 <0>        -0.3480
     25 C17        -3.1573   -1.9668    2.0828 C.3       1 <0>        -0.2413
     26 H2          3.3666   -0.5812   -1.4349 H         1 <0>         0.0933
     27 H3          1.5917   -0.7096   -1.3942 H         1 <0>         0.0765
     28 H4          2.3718    0.5217   -2.4158 H         1 <0>         0.0926
     29 H5          2.9643    2.6624   -2.3367 H         1 <0>         0.1526
     30 H6          4.8593    4.2253   -2.5091 H         1 <0>         0.1670
     31 H7          6.2747    2.9291    1.2996 H         1 <0>         0.1654
     32 H8          4.3747    1.3729    1.4761 H         1 <0>         0.1432
     33 H9         -0.1023    0.1305   -0.2558 H         1 <0>         0.2292
     34 H10        -0.5684    3.3741   -1.5397 H         1 <0>         0.1638
     35 H11        -2.6760    4.6419   -1.4751 H         1 <0>         0.1357
     36 H12        -4.5694    3.8255   -0.1338 H         1 <0>         0.1360
     37 H13        -4.3691    1.7316    1.1426 H         1 <0>         0.1684
     38 H14        -1.3877   -0.0722    1.6456 H         1 <0>         0.2270
     39 H15        -2.8099   -1.8067    3.1034 H         1 <0>         0.0964
     40 H16        -4.1208   -2.4760    2.1026 H         1 <0>         0.1220
     41 H17        -2.4337   -2.5791    1.5446 H         1 <0>         0.0930
@<TRIPOS>BOND
     1    1    2 1
     2    1   26 1
     3    1   27 1
     4    1   28 1
     5    2    3 1
     6    2    4 1
     7    2   13 1
     8    4    9 ar
     9    4    5 ar
    10    5    6 ar
    11    5   29 1
    12    6    7 ar
    13    6   30 1
    14    7    8 ar
    15    7   10 1
    16    8    9 ar
    17    8   31 1
    18    9   32 1
    19   10   11 2
    20   10   12 1
    21   13   14 2
    22   13   15 am
    23   15   16 1
    24   15   33 1
    25   16   21 ar
    26   16   17 ar
    27   17   18 ar
    28   17   34 1
    29   18   19 ar
    30   18   35 1
    31   19   20 ar
    32   19   36 1
    33   20   21 ar
    34   20   37 1
    35   21   22 1
    36   22   23 am
    37   22   38 1
    38   23   24 2
    39   23   25 1
    40   25   39 1
    41   25   40 1
    42   25   41 1
@<TRIPOS>MOLECULE
ZINC00471238
   41    42     0     0     0
SMALL
USER_CHARGES

@<TRIPOS>ATOM
      1 C1         -3.9128    5.8957    1.3979 C.3       1 <0>        -0.2043
      2 C2         -4.6059    5.5266    0.0848 C.3       1 <0>        -0.1047
      3 H1         -4.0579    5.9627   -0.7505 H         1 <0>         0.1173
      4 C3         -6.0155    6.0594    0.0937 C.ar      1 <0>        -0.0238
      5 C4         -6.9061    5.6418    1.0649 C.ar      1 <0>        -0.0994
      6 C5         -8.1977    6.1343    1.0760 C.ar      1 <0>        -0.0688
      7 C6         -8.6016    7.0367    0.1099 C.ar      1 <0>        -0.1069
      8 C7         -7.7127    7.4500   -0.8647 C.ar      1 <0>        -0.0706
      9 C8         -6.4195    6.9616   -0.8726 C.ar      1 <0>        -0.1270
     10 N1         -9.9862    7.5602    0.1187 N.pl3     1 <0>         0.5483
     11 O1        -10.3422    8.3550   -0.7327 O.2       1 <0>        -0.3569
     12 O2        -10.7694    7.1960    0.9775 O.3       1 <0>        -0.3547
     13 C9         -4.6366    4.0271   -0.0628 C.2       1 <0>         0.3025
     14 O3         -5.6987    3.4481   -0.1519 O.2       1 <0>        -0.3406
     15 N2         -3.4839    3.3295   -0.0957 N.am      1 <0>        -0.3251
     16 C10        -3.5134    1.9298   -0.1385 C.ar      1 <0>         0.0220
     17 C11        -4.5219    1.2761   -0.8311 C.ar      1 <0>        -0.1113
     18 C12        -4.5493   -0.1050   -0.8715 C.ar      1 <0>        -0.1273
     19 C13        -3.5730   -0.8394   -0.2233 C.ar      1 <0>        -0.1246
     20 C14        -2.5618   -0.1965    0.4651 C.ar      1 <0>        -0.1116
     21 C15        -2.5294    1.1893    0.5155 C.ar      1 <0>         0.0301
     22 N3         -1.5079    1.8430    1.2163 N.am      1 <0>        -0.3336
     23 C16        -0.2661    1.3198    1.2412 C.2       1 <0>         0.2992
     24 O4         -0.0512    0.2430    0.7257 O.2       1 <0>        -0.3477
     25 C17         0.8568    2.0754    1.9040 C.3       1 <0>        -0.2413
     26 H2         -2.8932    5.5103    1.3914 H         1 <0>         0.0715
     27 H3         -3.8905    6.9803    1.5046 H         1 <0>         0.0940
     28 H4         -4.4607    5.4596    2.2331 H         1 <0>         0.0914
     29 H5         -6.5917    4.9336    1.8173 H         1 <0>         0.1537
     30 H6         -8.8924    5.8111    1.8372 H         1 <0>         0.1672
     31 H7         -8.0283    8.1549   -1.6196 H         1 <0>         0.1655
     32 H8         -5.7250    7.2845   -1.6341 H         1 <0>         0.1441
     33 H9         -2.6339    3.7967   -0.0898 H         1 <0>         0.2292
     34 H10        -5.2855    1.8465   -1.3390 H         1 <0>         0.1663
     35 H11        -5.3353   -0.6123   -1.4113 H         1 <0>         0.1361
     36 H12        -3.5987   -1.9185   -0.2586 H         1 <0>         0.1360
     37 H13        -1.7987   -0.7731    0.9668 H         1 <0>         0.1683
     38 H14        -1.6942    2.6723    1.6837 H         1 <0>         0.2264
     39 H15         1.7798    1.5016    1.8205 H         1 <0>         0.1222
     40 H16         0.9836    3.0410    1.4145 H         1 <0>         0.0931
     41 H17         0.6190    2.2300    2.9565 H         1 <0>         0.0960
@<TRIPOS>BOND
     1    1    2 1
     2    1   26 1
     3    1   27 1
     4    1   28 1
     5    2    3 1
     6    2    4 1
     7    2   13 1
     8    4    9 ar
     9    4    5 ar
    10    5    6 ar
    11    5   29 1
    12    6    7 ar
    13    6   30 1
    14    7    8 ar
    15    7   10 1
    16    8    9 ar
    17    8   31 1
    18    9   32 1
    19   10   11 2
    20   10   12 1
    21   13   14 2
    22   13   15 am
    23   15   16 1
    24   15   33 1
    25   16   21 ar
    26   16   17 ar
    27   17   18 ar
    28   17   34 1
    29   18   19 ar
    30   18   35 1
    31   19   20 ar
    32   19   36 1
    33   20   21 ar
    34   20   37 1
    35   21   22 1
    36   22   23 am
    37   22   38 1
    38   23   24 2
    39   23   25 1
    40   25   39 1
    41   25   40 1
    42   25   41 1
@<TRIPOS>MOLECULE
ZINC00471590
   41    42     0     0     0
SMALL
USER_CHARGES

@<TRIPOS>ATOM
      1 C1         -0.7825   10.4089    1.6890 C.3       1 <0>        -0.2060
      2 C2         -0.1661    9.9205    0.3766 C.3       1 <0>        -0.1050
      3 H1         -0.7671   10.2746   -0.4610 H         1 <0>         0.1175
      4 C3          1.2367   10.4565    0.2504 C.ar      1 <0>        -0.0203
      5 C4          2.1846   10.1440    1.2067 C.ar      1 <0>        -0.1006
      6 C5          3.4727   10.6317    1.0884 C.ar      1 <0>        -0.0680
      7 C6          3.8100   11.4406    0.0193 C.ar      1 <0>        -0.1080
      8 C7          2.8606   11.7574   -0.9342 C.ar      1 <0>        -0.0702
      9 C8          1.5739   11.2654   -0.8187 C.ar      1 <0>        -0.1270
     10 N1          5.1875   11.9678   -0.1042 N.pl3     1 <0>         0.5488
     11 O1          5.4846   12.6808   -1.0459 O.2       1 <0>        -0.3582
     12 O2          6.0240   11.6886    0.7360 O.3       1 <0>        -0.3558
     13 C9         -0.1308    8.4139    0.3681 C.2       1 <0>         0.3028
     14 O3          0.9291    7.8327    0.2694 O.2       1 <0>        -0.3408
     15 N2         -1.2771    7.7125    0.4704 N.am      1 <0>        -0.3235
     16 C10        -1.2554    6.3159    0.3648 C.ar      1 <0>         0.0340
     17 C11        -2.3116    5.6489   -0.2418 C.ar      1 <0>        -0.1397
     18 C12        -2.2899    4.2726   -0.3463 C.ar      1 <0>        -0.1522
     19 C13        -1.2117    3.5551    0.1548 C.ar      1 <0>         0.0528
     20 C14        -0.1579    4.2217    0.7661 C.ar      1 <0>        -0.1191
     21 C15        -0.1777    5.5983    0.8671 C.ar      1 <0>        -0.1055
     22 N3         -1.1897    2.1585    0.0487 N.am      1 <0>        -0.3261
     23 C16        -0.0125    1.5026    0.0299 C.2       1 <0>         0.2993
     24 O4          1.0281    2.1249   -0.0039 O.2       1 <0>        -0.3494
     25 C17         0.0109   -0.0042    0.0446 C.3       1 <0>        -0.2387
     26 H2         -1.7972   10.0212    1.7803 H         1 <0>         0.0766
     27 H3         -0.1816   10.0548    2.5266 H         1 <0>         0.0907
     28 H4         -0.8081   11.4986    1.6951 H         1 <0>         0.0923
     29 H5          1.9200    9.5156    2.0443 H         1 <0>         0.1522
     30 H6          4.2143   10.3844    1.8335 H         1 <0>         0.1663
     31 H7          3.1240   12.3896   -1.7693 H         1 <0>         0.1647
     32 H8          0.8321   11.5132   -1.5635 H         1 <0>         0.1439
     33 H9         -2.1172    8.1747    0.6170 H         1 <0>         0.2307
     34 H10        -3.1498    6.2069   -0.6322 H         1 <0>         0.1294
     35 H11        -3.1114    3.7538   -0.8181 H         1 <0>         0.1302
     36 H12         0.6786    3.6633    1.1597 H         1 <0>         0.1747
     37 H13         0.6435    6.1170    1.3391 H         1 <0>         0.1670
     38 H14        -2.0217    1.6635   -0.0112 H         1 <0>         0.2308
     39 H15         0.0437   -0.3570    1.0754 H         1 <0>         0.1071
     40 H16        -0.8866   -0.3862   -0.4418 H         1 <0>         0.0827
     41 H17         0.8925   -0.3591   -0.4891 H         1 <0>         0.1194
@<TRIPOS>BOND
     1    1    2 1
     2    1   26 1
     3    1   27 1
     4    1   28 1
     5    2    3 1
     6    2    4 1
     7    2   13 1
     8    4    9 ar
     9    4    5 ar
    10    5    6 ar
    11    5   29 1
    12    6    7 ar
    13    6   30 1
    14    7    8 ar
    15    7   10 1
    16    8    9 ar
    17    8   31 1
    18    9   32 1
    19   10   11 2
    20   10   12 1
    21   13   14 2
    22   13   15 am
    23   15   16 1
    24   15   33 1
    25   16   21 ar
    26   16   17 ar
    27   17   18 ar
    28   17   34 1
    29   18   19 ar
    30   18   35 1
    31   19   20 ar
    32   19   22 1
    33   20   21 ar
    34   20   36 1
    35   21   37 1
    36   22   23 am
    37   22   38 1
    38   23   24 2
    39   23   25 1
    40   25   39 1
    41   25   40 1
    42   25   41 1
@<TRIPOS>MOLECULE
ZINC00471591
   41    42     0     0     0
SMALL
USER_CHARGES

@<TRIPOS>ATOM
      1 C1         -6.6625    5.4551   -0.3486 C.3       1 <0>        -0.2049
      2 C2         -5.8034    5.8143    0.8654 C.3       1 <0>        -0.1049
      3 H1         -6.3146    5.5041    1.7768 H         1 <0>         0.1155
      4 C3         -5.5779    7.3040    0.8982 C.ar      1 <0>        -0.0220
      5 C4         -4.9373    7.9294   -0.1551 C.ar      1 <0>        -0.0985
      6 C5         -4.7348    9.2965   -0.1272 C.ar      1 <0>        -0.0691
      7 C6         -5.1638   10.0368    0.9585 C.ar      1 <0>        -0.1082
      8 C7         -5.7993    9.4106    2.0144 C.ar      1 <0>        -0.0715
      9 C8         -6.0066    8.0442    1.9841 C.ar      1 <0>        -0.1283
     10 N1         -4.9424   11.5000    0.9907 N.pl3     1 <0>         0.5485
     11 O1         -5.3201   12.1522    1.9475 O.2       1 <0>        -0.3585
     12 O2         -4.3824   12.0518    0.0603 O.3       1 <0>        -0.3555
     13 C9         -4.4761    5.1073    0.7684 C.2       1 <0>         0.3038
     14 O3         -3.4481    5.7499    0.7296 O.2       1 <0>        -0.3465
     15 N2         -4.4313    3.7610    0.7246 N.am      1 <0>        -0.3219
     16 C10        -3.2071    3.1067    0.5369 C.ar      1 <0>         0.0370
     17 C11        -3.1537    1.9318   -0.2015 C.ar      1 <0>        -0.1433
     18 C12        -1.9471    1.2875   -0.3872 C.ar      1 <0>        -0.1103
     19 C13        -0.7866    1.8140    0.1648 C.ar      1 <0>         0.0471
     20 C14        -0.8409    2.9856    0.9084 C.ar      1 <0>        -0.1453
     21 C15        -2.0466    3.6332    1.0889 C.ar      1 <0>        -0.1093
     22 N3          0.4378    1.1602   -0.0237 N.am      1 <0>        -0.3280
     23 C16         0.6914    0.5265   -1.1858 C.2       1 <0>         0.3013
     24 O4         -0.1690    0.4545   -2.0377 O.2       1 <0>        -0.3578
     25 C17         2.0440   -0.0927   -1.4268 C.3       1 <0>        -0.2362
     26 H2         -6.1514    5.7654   -1.2600 H         1 <0>         0.0926
     27 H3         -6.8256    4.3777   -0.3723 H         1 <0>         0.0784
     28 H4         -7.6226    5.9665   -0.2784 H         1 <0>         0.0916
     29 H5         -4.5985    7.3504   -1.0015 H         1 <0>         0.1556
     30 H6         -4.2380    9.7858   -0.9520 H         1 <0>         0.1668
     31 H7         -6.1342    9.9889    2.8628 H         1 <0>         0.1645
     32 H8         -6.5030    7.5549    2.8090 H         1 <0>         0.1434
     33 H9         -5.2468    3.2451    0.8231 H         1 <0>         0.2322
     34 H10        -4.0562    1.5224   -0.6308 H         1 <0>         0.1328
     35 H11        -1.9055    0.3742   -0.9621 H         1 <0>         0.1683
     36 H12         0.0608    3.3926    1.3414 H         1 <0>         0.1348
     37 H13        -2.0881    4.5469    1.6633 H         1 <0>         0.1664
     38 H14         1.1015    1.1602    0.6836 H         1 <0>         0.2322
     39 H15         2.6793    0.0721   -0.5566 H         1 <0>         0.0782
     40 H16         1.9287   -1.1635   -1.5948 H         1 <0>         0.1127
     41 H17         2.5023    0.3653   -2.3033 H         1 <0>         0.1163
@<TRIPOS>BOND
     1    1    2 1
     2    1   26 1
     3    1   27 1
     4    1   28 1
     5    2    3 1
     6    2    4 1
     7    2   13 1
     8    4    9 ar
     9    4    5 ar
    10    5    6 ar
    11    5   29 1
    12    6    7 ar
    13    6   30 1
    14    7    8 ar
    15    7   10 1
    16    8    9 ar
    17    8   31 1
    18    9   32 1
    19   10   11 2
    20   10   12 1
    21   13   14 2
    22   13   15 am
    23   15   16 1
    24   15   33 1
    25   16   21 ar
    26   16   17 ar
    27   17   18 ar
    28   17   34 1
    29   18   19 ar
    30   18   35 1
    31   19   20 ar
    32   19   22 1
    33   20   21 ar
    34   20   36 1
    35   21   37 1
    36   22   23 am
    37   22   38 1
    38   23   24 2
    39   23   25 1
    40   25   39 1
    41   25   40 1
    42   25   41 1
@<TRIPOS>MOLECULE
ZINC00472489
   40    42     0     0     0
SMALL
USER_CHARGES

@<TRIPOS>ATOM
      1 C1         -1.9602    0.7774    0.8473 C.3       1 <0>        -0.1734
      2 C2         -0.9481    1.6744    0.1824 C.ar      1 <0>        -0.0586
      3 C3          0.0083    1.1332   -0.6575 C.ar      1 <0>        -0.1439
      4 C4          0.9354    1.9533   -1.2737 C.ar      1 <0>        -0.1124
      5 C5          0.9124    3.3158   -1.0479 C.ar      1 <0>        -0.1258
      6 C6         -0.0433    3.8618   -0.2011 C.ar      1 <0>         0.0765
      7 C7         -0.9733    3.0350    0.4164 C.ar      1 <0>        -0.1586
      8 N1         -0.0691    5.2407    0.0299 N.pl3     1 <0>        -0.2625
      9 C8          1.1141    5.9469    0.1272 C.ar      1 <0>         0.2770
     10 N2          1.0914    7.2736    0.2348 N.ar      1 <0>        -0.3410
     11 C9          2.2226    7.9501    0.3278 C.ar      1 <0>         0.1690
     12 N3          3.3806    7.3131    0.3144 N.ar      1 <0>        -0.3421
     13 C10         3.4114    5.9868    0.2070 C.ar      1 <0>         0.2771
     14 N4          2.2758    5.3027    0.1188 N.ar      1 <0>        -0.3667
     15 N5          4.6210    5.3227    0.1926 N.pl3     1 <0>        -0.3646
     16 C11         2.1924    9.4519    0.4491 C.3       1 <0>        -0.1914
     17 S1          2.1233    9.9148    2.1975 S.3       1 <0>         0.2444
     18 C12         2.0981   11.6703    2.0485 C.2       1 <0>        -0.1704
     19 N6          2.1314   12.3460    0.9236 N.2       1 <0>        -0.1844
     20 C13         2.0935   13.6615    1.1944 C.2       1 <0>        -0.1448
     21 C14         2.0442   13.8176    2.5283 C.2       1 <0>        -0.1799
     22 N7          2.0467   12.5563    3.0805 N.pl3     1 <0>        -0.1288
     23 C15         2.0020   12.2299    4.5079 C.3       1 <0>        -0.0685
     24 H1         -1.5706    0.4393    1.8075 H         1 <0>         0.0872
     25 H2         -2.8867    1.3293    1.0051 H         1 <0>         0.0807
     26 H3         -2.1551   -0.0853    0.2102 H         1 <0>         0.0822
     27 H4          0.0282    0.0682   -0.8359 H         1 <0>         0.1294
     28 H5          1.6781    1.5281   -1.9324 H         1 <0>         0.1305
     29 H6          1.6366    3.9559   -1.5298 H         1 <0>         0.1515
     30 H7         -1.7176    3.4564    1.0759 H         1 <0>         0.1324
     31 H8         -0.9178    5.7012    0.1219 H         1 <0>         0.2596
     32 H9          5.4495    5.8225    0.2607 H         1 <0>         0.2439
     33 H10         4.6427    4.3561    0.1143 H         1 <0>         0.2418
     34 H11         3.0916    9.8710   -0.0025 H         1 <0>         0.1460
     35 H12         1.3130    9.8402   -0.0646 H         1 <0>         0.1456
     36 H13         2.1055   14.4577    0.4648 H         1 <0>         0.1778
     37 H14         2.0095   14.7541    3.0650 H         1 <0>         0.1739
     38 H15         3.0178   12.1664    4.8981 H         1 <0>         0.0922
     39 H16         1.4558   13.0077    5.0416 H         1 <0>         0.0950
     40 H17         1.4993   11.2727    4.6462 H         1 <0>         0.1040
@<TRIPOS>BOND
     1    1    2 1
     2    1   24 1
     3    1   25 1
     4    1   26 1
     5    2    7 ar
     6    2    3 ar
     7    3    4 ar
     8    3   27 1
     9    4    5 ar
    10    4   28 1
    11    5    6 ar
    12    5   29 1
    13    6    7 ar
    14    6    8 1
    15    7   30 1
    16    8    9 1
    17    8   31 1
    18    9   14 ar
    19    9   10 ar
    20   10   11 ar
    21   11   12 ar
    22   11   16 1
    23   12   13 ar
    24   13   14 ar
    25   13   15 1
    26   15   32 1
    27   15   33 1
    28   16   17 1
    29   16   34 1
    30   16   35 1
    31   17   18 1
    32   18   22 1
    33   18   19 2
    34   19   20 1
    35   20   21 2
    36   20   36 1
    37   21   22 1
    38   21   37 1
    39   22   23 1
    40   23   38 1
    41   23   39 1
    42   23   40 1
@<TRIPOS>MOLECULE
ZINC00472534
   44    45     0     0     0
SMALL
USER_CHARGES

@<TRIPOS>ATOM
      1 C1         -1.2786    7.8146    0.4789 C.3       1 <0>        -0.1729
      2 C2         -1.2563    6.3127    0.3569 C.ar      1 <0>        -0.0880
      3 C3         -0.2392    5.6926   -0.3454 C.ar      1 <0>        -0.1133
      4 C4         -0.2159    4.3164   -0.4591 C.ar      1 <0>        -0.1217
      5 C5         -1.2153    3.5552    0.1328 C.ar      1 <0>         0.0501
      6 C6         -2.2385    4.1814    0.8325 C.ar      1 <0>        -0.1534
      7 C7         -2.2527    5.5576    0.9478 C.ar      1 <0>        -0.1127
      8 N1         -1.1946    2.1607    0.0195 N.am      1 <0>        -0.3161
      9 C8         -0.0184    1.5027    0.0118 C.2       1 <0>         0.3178
     10 O1          1.0237    2.1232    0.0133 O.2       1 <0>        -0.3497
     11 C9          0.0019   -0.0041   -0.0051 C.3       1 <0>        -0.2408
     12 H1         -0.8320   -0.3853    0.5844 H         1 <0>         0.1445
     13 C10        -0.1243   -0.4998   -1.4471 C.3       1 <0>        -0.2121
     14 S1          1.5601   -0.5945    0.7016 S.3       1 <0>         0.2862
     15 C11         1.2588   -2.3305    0.6993 C.2       1 <0>         0.0116
     16 N2          0.1089   -2.7865    0.2485 N.2       1 <0>        -0.3096
     17 C12        -0.1510   -4.1032    0.2284 C.2       1 <0>         0.3246
     18 O2         -1.2219   -4.5111   -0.1978 O.2       1 <0>        -0.3429
     19 C13         0.8135   -5.0132    0.7054 C.2       1 <0>        -0.3980
     20 C14         2.0006   -4.5296    1.1755 C.2       1 <0>         0.2286
     21 N3          2.2178   -3.1766    1.1693 N.pl3     1 <0>        -0.2176
     22 C15         3.4849   -2.6382    1.6701 C.3       1 <0>        -0.0095
     23 C16         3.3637   -2.3589    3.1460 C.2       1 <0>        -0.1987
     24 C17         4.2189   -2.8885    3.9852 C.2       1 <0>        -0.1949
     25 N4          2.9650   -5.3887    1.6493 N.pl3     1 <0>        -0.4099
     26 H2         -1.8411    8.2384   -0.3530 H         1 <0>         0.0850
     27 H3         -1.7531    8.0957    1.4191 H         1 <0>         0.0805
     28 H4         -0.2576    8.1960    0.4590 H         1 <0>         0.0820
     29 H5          0.5376    6.2851   -0.8058 H         1 <0>         0.1347
     30 H6          0.5789    3.8326   -1.0075 H         1 <0>         0.1642
     31 H7         -3.0196    3.5925    1.2902 H         1 <0>         0.1299
     32 H8         -3.0454    6.0449    1.4959 H         1 <0>         0.1322
     33 H9         -2.0267    1.6676   -0.0535 H         1 <0>         0.2378
     34 H10        -0.1096   -1.5896   -1.4593 H         1 <0>         0.1326
     35 H11        -1.0627   -0.1442   -1.8727 H         1 <0>         0.0842
     36 H12         0.7095   -0.1186   -2.0366 H         1 <0>         0.0888
     37 H13         0.6168   -6.0751    0.6995 H         1 <0>         0.1634
     38 H14         4.2801   -3.3645    1.5018 H         1 <0>         0.1011
     39 H15         3.7201   -1.7133    1.1434 H         1 <0>         0.1296
     40 H16         2.5719   -1.7221    3.5118 H         1 <0>         0.1490
     41 H17         4.1320   -2.6883    5.0430 H         1 <0>         0.1283
     42 H18         5.0107   -3.5253    3.6194 H         1 <0>         0.1065
     43 H19         3.8059   -5.0378    1.9820 H         1 <0>         0.2204
     44 H20         2.8041   -6.3453    1.6506 H         1 <0>         0.2481
@<TRIPOS>BOND
     1    1    2 1
     2    1   26 1
     3    1   27 1
     4    1   28 1
     5    2    7 ar
     6    2    3 ar
     7    3    4 ar
     8    3   29 1
     9    4    5 ar
    10    4   30 1
    11    5    6 ar
    12    5    8 1
    13    6    7 ar
    14    6   31 1
    15    7   32 1
    16    8    9 am
    17    8   33 1
    18    9   10 2
    19    9   11 1
    20   11   12 1
    21   11   13 1
    22   11   14 1
    23   13   34 1
    24   13   35 1
    25   13   36 1
    26   14   15 1
    27   15   21 1
    28   15   16 2
    29   16   17 1
    30   17   18 2
    31   17   19 1
    32   19   20 2
    33   19   37 1
    34   20   21 1
    35   20   25 1
    36   21   22 1
    37   22   23 1
    38   22   38 1
    39   22   39 1
    40   23   24 2
    41   23   40 1
    42   24   41 1
    43   24   42 1
    44   25   43 1
    45   25   44 1
@<TRIPOS>MOLECULE
ZINC00472535
   44    45     0     0     0
SMALL
USER_CHARGES

@<TRIPOS>ATOM
      1 C1          3.1514    9.5134   -7.5218 C.3       1 <0>        -0.1729
      2 C2          2.2967    8.3462   -7.0998 C.ar      1 <0>        -0.0879
      3 C3          2.5749    7.6775   -5.9218 C.ar      1 <0>        -0.1135
      4 C4          1.7935    6.6075   -5.5322 C.ar      1 <0>        -0.1218
      5 C5          0.7270    6.2035   -6.3247 C.ar      1 <0>         0.0506
      6 C6          0.4532    6.8741   -7.5096 C.ar      1 <0>        -0.1530
      7 C7          1.2355    7.9464   -7.8912 C.ar      1 <0>        -0.1125
      8 N1         -0.0663    5.1195   -5.9331 N.am      1 <0>        -0.3157
      9 C8         -0.3203    4.9075   -4.6266 C.2       1 <0>         0.3184
     10 O1          0.2060    5.6050   -3.7855 O.2       1 <0>        -0.3515
     11 C9         -1.2584    3.8038   -4.2108 C.3       1 <0>        -0.2410
     12 H1         -1.0877    2.9272   -4.8357 H         1 <0>         0.1452
     13 C10        -2.7048    4.2743   -4.3763 C.3       1 <0>        -0.2116
     14 S1         -0.9573    3.3771   -2.4777 S.3       1 <0>         0.2854
     15 C11        -2.0473    2.0033   -2.3070 C.2       1 <0>         0.0153
     16 N2         -2.7624    1.6129   -3.3413 N.2       1 <0>        -0.3106
     17 C12        -3.6064    0.5738   -3.2439 C.2       1 <0>         0.3248
     18 O2         -4.2668    0.2264   -4.2125 O.2       1 <0>        -0.3433
     19 C13        -3.7277   -0.1155   -2.0208 C.2       1 <0>        -0.3974
     20 C14        -2.9778    0.2939   -0.9560 C.2       1 <0>         0.2259
     21 N3         -2.1313    1.3607   -1.1085 N.pl3     1 <0>        -0.2171
     22 C15        -1.3185    1.8155    0.0223 C.3       1 <0>        -0.0069
     23 C16         0.0016    1.0887    0.0166 C.2       1 <0>        -0.2198
     24 C17         1.1225    1.7667    0.0105 C.2       1 <0>        -0.1713
     25 N4         -3.0709   -0.3552    0.2534 N.pl3     1 <0>        -0.4119
     26 H2          3.9793    9.1550   -8.1336 H         1 <0>         0.0847
     27 H3          2.5494   10.2144   -8.0999 H         1 <0>         0.0808
     28 H4          3.5439   10.0149   -6.6372 H         1 <0>         0.0820
     29 H5          3.4044    7.9922   -5.3059 H         1 <0>         0.1342
     30 H6          2.0113    6.0857   -4.6121 H         1 <0>         0.1629
     31 H7         -0.3730    6.5597   -8.1301 H         1 <0>         0.1303
     32 H8          1.0207    8.4707   -8.8106 H         1 <0>         0.1324
     33 H9         -0.4335    4.5205   -6.6020 H         1 <0>         0.2378
     34 H10        -2.8861    4.5312   -5.4200 H         1 <0>         0.0842
     35 H11        -3.3832    3.4760   -4.0755 H         1 <0>         0.1323
     36 H12        -2.8755    5.1509   -3.7514 H         1 <0>         0.0891
     37 H13        -4.4029   -0.9532   -1.9273 H         1 <0>         0.1631
     38 H14        -1.8439    1.6071    0.9544 H         1 <0>         0.1033
     39 H15        -1.1433    2.8878   -0.0641 H         1 <0>         0.1243
     40 H16         0.0236    0.0089    0.0129 H         1 <0>         0.1369
     41 H17         2.0686    1.2458    0.0018 H         1 <0>         0.1248
     42 H18         1.1006    2.8464    0.0141 H         1 <0>         0.1220
     43 H19        -2.5352   -0.0585    1.0056 H         1 <0>         0.2212
     44 H20        -3.6723   -1.1096    0.3539 H         1 <0>         0.2481
@<TRIPOS>BOND
     1    1    2 1
     2    1   26 1
     3    1   27 1
     4    1   28 1
     5    2    7 ar
     6    2    3 ar
     7    3    4 ar
     8    3   29 1
     9    4    5 ar
    10    4   30 1
    11    5    6 ar
    12    5    8 1
    13    6    7 ar
    14    6   31 1
    15    7   32 1
    16    8    9 am
    17    8   33 1
    18    9   10 2
    19    9   11 1
    20   11   12 1
    21   11   13 1
    22   11   14 1
    23   13   34 1
    24   13   35 1
    25   13   36 1
    26   14   15 1
    27   15   21 1
    28   15   16 2
    29   16   17 1
    30   17   18 2
    31   17   19 1
    32   19   20 2
    33   19   37 1
    34   20   21 1
    35   20   25 1
    36   21   22 1
    37   22   23 1
    38   22   38 1
    39   22   39 1
    40   23   24 2
    41   23   40 1
    42   24   41 1
    43   24   42 1
    44   25   43 1
    45   25   44 1
@<TRIPOS>MOLECULE
ZINC00474231
   40    41     0     0     0
SMALL
USER_CHARGES

@<TRIPOS>ATOM
      1 C1         -6.3678    5.7892   10.9561 C.3       1 <0>        -0.1387
      2 C2         -5.7546    6.3469    9.6976 C.2       1 <0>        -0.0244
      3 C3         -5.6656    7.6583    9.3827 C.2       1 <0>        -0.2261
      4 C4         -5.0255    7.7435    8.1370 C.2       1 <0>        -0.1558
      5 C5         -4.7592    6.4484    7.7432 C.2       1 <0>        -0.0651
      6 O1         -5.2092    5.6224    8.7107 O.3       1 <0>        -0.0475
      7 C6         -4.1219    6.0562    6.5411 C.2       1 <0>         0.0180
      8 C7         -3.9164    4.7410    6.2802 C.2       1 <0>        -0.2516
      9 C8         -3.2796    4.3491    5.0789 C.2       1 <0>         0.3466
     10 O2         -2.9160    5.1926    4.2792 O.2       1 <0>        -0.3623
     11 N1         -3.0754    3.0423    4.8198 N.am      1 <0>        -0.3270
     12 C9         -2.3494    2.6592    3.6880 C.ar      1 <0>         0.1249
     13 C10        -2.6719    1.4857    3.0185 C.ar      1 <0>        -0.1945
     14 C11        -1.9525    1.1099    1.9011 C.ar      1 <0>        -0.0129
     15 C12        -0.9121    1.9006    1.4486 C.ar      1 <0>        -0.7826
     16 C13        -0.5851    3.0668    2.1159 C.ar      1 <0>         0.0117
     17 C14        -1.3038    3.4511    3.2308 C.ar      1 <0>        -0.1561
     18 S1          0.0036    1.4172    0.0229 S.o2      1 <0>         2.7497
     19 O3         -0.1429    0.0087   -0.0955 O.2       1 <0>        -0.9165
     20 O4          1.2742    2.0452    0.1242 O.2       1 <0>        -0.8839
     21 N2         -0.7503    2.0836   -1.2923 N.am      1 <0>        -0.8301
     22 C15        -0.7930    3.4228   -1.4377 C.2       1 <0>         0.3240
     23 O5         -0.2794    4.1399   -0.6053 O.2       1 <0>        -0.3263
     24 C16        -1.4790    4.0293   -2.6346 C.3       1 <0>        -0.2379
     25 H1         -6.3007    4.7013   10.9418 H         1 <0>         0.0943
     26 H2         -5.8319    6.1749   11.8233 H         1 <0>         0.1004
     27 H3         -7.4146    6.0878   11.0135 H         1 <0>         0.1001
     28 H4         -6.0173    8.4862    9.9805 H         1 <0>         0.1607
     29 H5         -4.7896    8.6458    7.5923 H         1 <0>         0.1633
     30 H6         -3.7995    6.8042    5.8319 H         1 <0>         0.1760
     31 H7         -4.2389    3.9930    6.9894 H         1 <0>         0.1397
     32 H8         -3.4322    2.3676    5.4184 H         1 <0>         0.2372
     33 H9         -3.4846    0.8679    3.3712 H         1 <0>         0.1344
     34 H10        -2.2030    0.1978    1.3799 H         1 <0>         0.1462
     35 H11         0.2309    3.6798    1.7625 H         1 <0>         0.1729
     36 H12        -1.0508    4.3643    3.7488 H         1 <0>         0.1684
     37 H13        -1.1611    1.5101   -1.9581 H         1 <0>         0.2520
     38 H14        -1.8769    3.2352   -3.2664 H         1 <0>         0.0821
     39 H15        -2.2946    4.6703   -2.2999 H         1 <0>         0.1176
     40 H16        -0.7618    4.6211   -3.2033 H         1 <0>         0.1193
@<TRIPOS>BOND
     1    1    2 1
     2    1   25 1
     3    1   26 1
     4    1   27 1
     5    2    6 1
     6    2    3 2
     7    3    4 1
     8    3   28 1
     9    4    5 2
    10    4   29 1
    11    5    6 1
    12    5    7 1
    13    7    8 2
    14    7   30 1
    15    8    9 1
    16    8   31 1
    17    9   10 2
    18    9   11 am
    19   11   12 1
    20   11   32 1
    21   12   17 ar
    22   12   13 ar
    23   13   14 ar
    24   13   33 1
    25   14   15 ar
    26   14   34 1
    27   15   16 ar
    28   15   18 1
    29   16   17 ar
    30   16   35 1
    31   17   36 1
    32   18   19 2
    33   18   20 2
    34   18   21 1
    35   21   22 am
    36   21   37 1
    37   22   23 2
    38   22   24 1
    39   24   38 1
    40   24   39 1
    41   24   40 1
@<TRIPOS>MOLECULE
ZINC00474730
   38    39     0     0     0
SMALL
USER_CHARGES

@<TRIPOS>ATOM
      1 C1         -1.5840   -3.2949   -0.0023 C.3       1 <0>        -0.1381
      2 C2         -0.6756   -2.0925   -0.0038 C.2       1 <0>        -0.0282
      3 C3          0.6754   -2.1300   -0.0169 C.2       1 <0>        -0.2255
      4 C4          1.1274   -0.8016   -0.0186 C.2       1 <0>        -0.1620
      5 C5          0.0021   -0.0041    0.0020 C.2       1 <0>        -0.0594
      6 O1         -1.0773   -0.8140    0.0075 O.3       1 <0>        -0.0473
      7 C6         -0.0171    1.4119    0.0098 C.2       1 <0>         0.0062
      8 C7         -1.2007    2.0740    0.0190 C.2       1 <0>        -0.2412
      9 C8         -1.2199    3.4893    0.0268 C.2       1 <0>         0.3441
     10 O2         -0.1737    4.1125    0.0252 O.2       1 <0>        -0.3849
     11 N1         -2.3962    4.1473    0.0360 N.am      1 <0>        -0.3874
     12 C9         -2.4160    5.6121    0.0440 C.3       1 <0>         0.0281
     13 C10        -3.8435    6.0951    0.0534 C.ar      1 <0>        -0.0523
     14 C11        -4.5021    6.3285   -1.1394 C.ar      1 <0>        -0.1376
     15 C12        -5.8129    6.7674   -1.1308 C.ar      1 <0>        -0.0287
     16 C13        -6.4622    6.9815    0.0706 C.ar      1 <0>        -0.7571
     17 C14        -5.8020    6.7531    1.2635 C.ar      1 <0>        -0.0287
     18 C15        -4.4925    6.3101    1.2548 C.ar      1 <0>        -0.1376
     19 S1         -8.1316    7.5450    0.0816 S.o2      1 <0>         2.7612
     20 O3         -8.6982    7.1607   -1.1636 O.2       1 <0>        -0.9155
     21 O4         -8.6870    7.1454    1.3271 O.2       1 <0>        -0.9155
     22 N2         -8.0895    9.2005    0.0916 N.pl3     1 <0>        -0.9306
     23 H1         -2.6230   -2.9653    0.0100 H         1 <0>         0.0942
     24 H2         -1.4019   -3.8890   -0.8978 H         1 <0>         0.0992
     25 H3         -1.3844   -3.9000    0.8821 H         1 <0>         0.0992
     26 H4          1.2918   -3.0167   -0.0283 H         1 <0>         0.1593
     27 H5          2.1548   -0.4689   -0.0315 H         1 <0>         0.1620
     28 H6          0.9107    1.9646    0.0039 H         1 <0>         0.1751
     29 H7         -2.1286    1.5213    0.0204 H         1 <0>         0.1383
     30 H8         -3.2295    3.6509    0.0372 H         1 <0>         0.2289
     31 H9         -1.9030    5.9776    0.9336 H         1 <0>         0.1032
     32 H10        -1.9114    5.9873   -0.8463 H         1 <0>         0.1032
     33 H11        -3.9935    6.1648   -2.0780 H         1 <0>         0.1443
     34 H12        -6.3288    6.9455   -2.0627 H         1 <0>         0.1558
     35 H13        -6.3093    6.9204    2.2021 H         1 <0>         0.1558
     36 H14        -3.9767    6.1317    2.1868 H         1 <0>         0.1443
     37 H15        -7.2374    9.6640    0.0906 H         1 <0>         0.2304
     38 H16        -8.9170    9.7066    0.0984 H         1 <0>         0.2448
@<TRIPOS>BOND
     1    1    2 1
     2    1   23 1
     3    1   24 1
     4    1   25 1
     5    2    6 1
     6    2    3 2
     7    3    4 1
     8    3   26 1
     9    4    5 2
    10    4   27 1
    11    5    6 1
    12    5    7 1
    13    7    8 2
    14    7   28 1
    15    8    9 1
    16    8   29 1
    17    9   10 2
    18    9   11 am
    19   11   12 1
    20   11   30 1
    21   12   13 1
    22   12   31 1
    23   12   32 1
    24   13   18 ar
    25   13   14 ar
    26   14   15 ar
    27   14   33 1
    28   15   16 ar
    29   15   34 1
    30   16   17 ar
    31   16   19 1
    32   17   18 ar
    33   17   35 1
    34   18   36 1
    35   19   20 2
    36   19   21 2
    37   19   22 1
    38   22   37 1
    39   22   38 1
@<TRIPOS>MOLECULE
ZINC00475021
   40    41     0     0     0
SMALL
USER_CHARGES

@<TRIPOS>ATOM
      1 C1         -5.4379   -2.8152    1.8011 C.3       1 <0>        -0.2043
      2 C2         -4.7393   -3.1459    0.4806 C.3       1 <0>        -0.0833
      3 C3         -5.6759   -2.8256   -0.6860 C.3       1 <0>        -0.2043
      4 C4         -3.4832   -2.3226    0.3570 C.ar      1 <0>        -0.0380
      5 C5         -2.2561   -2.9515    0.2422 C.ar      1 <0>        -0.1364
      6 C6         -1.1023   -2.2038    0.1282 C.ar      1 <0>        -0.0585
      7 C7         -1.1749   -0.8097    0.1293 C.ar      1 <0>        -0.1401
      8 C8         -2.4155   -0.1816    0.2512 C.ar      1 <0>        -0.1015
      9 C9         -3.5621   -0.9412    0.3583 C.ar      1 <0>        -0.1334
     10 C10         0.0572   -0.0022    0.0080 C.2       1 <0>         0.3522
     11 O1          1.1368   -0.5519   -0.0929 O.2       1 <0>        -0.3483
     12 N1         -0.0162    1.3436    0.0094 N.am      1 <0>        -0.3291
     13 C11         1.1549    2.1077   -0.0075 C.ar      1 <0>         0.1204
     14 C12         1.2086    3.3143    0.6785 C.ar      1 <0>        -0.1888
     15 C13         2.3687    4.0635    0.6649 C.ar      1 <0>        -0.0066
     16 C14         3.4721    3.6195   -0.0405 C.ar      1 <0>        -0.7827
     17 C15         3.4199    2.4216   -0.7295 C.ar      1 <0>        -0.0141
     18 C16         2.2650    1.6646   -0.7149 C.ar      1 <0>        -0.1535
     19 S1          4.9480    4.5817   -0.0607 S.o2      1 <0>         2.7629
     20 O2          4.9212    5.3911    1.1069 O.2       1 <0>        -0.9212
     21 O3          6.0138    3.6848   -0.3416 O.2       1 <0>        -0.9135
     22 N2          4.8432    5.6118   -1.3532 N.pl3     1 <0>        -0.9296
     23 H1         -5.6943   -1.7560    1.8212 H         1 <0>         0.0754
     24 H2         -6.3465   -3.4107    1.8905 H         1 <0>         0.0784
     25 H3         -4.7707   -3.0434    2.6322 H         1 <0>         0.0804
     26 H4         -4.4830   -4.2051    0.4606 H         1 <0>         0.0982
     27 H5         -5.9323   -1.7664   -0.6659 H         1 <0>         0.0753
     28 H6         -5.1782   -3.0612   -1.6267 H         1 <0>         0.0797
     29 H7         -6.5845   -3.4211   -0.5966 H         1 <0>         0.0785
     30 H8         -2.2014   -4.0301    0.2415 H         1 <0>         0.1396
     31 H9         -0.1452   -2.6958    0.0380 H         1 <0>         0.1582
     32 H10        -2.4781    0.8965    0.2569 H         1 <0>         0.1223
     33 H11        -4.5231   -0.4566    0.4479 H         1 <0>         0.1371
     34 H12        -0.8814    1.7821    0.0181 H         1 <0>         0.2375
     35 H13         0.3456    3.6638    1.2258 H         1 <0>         0.1364
     36 H14         2.4128    4.9993    1.2023 H         1 <0>         0.1534
     37 H15         4.2835    2.0776   -1.2794 H         1 <0>         0.1555
     38 H16         2.2251    0.7288   -1.2527 H         1 <0>         0.1730
     39 H17         5.2804    6.4770   -1.3204 H         1 <0>         0.2428
     40 H18         4.3446    5.3498   -2.1429 H         1 <0>         0.2299
@<TRIPOS>BOND
     1    1    2 1
     2    1   23 1
     3    1   24 1
     4    1   25 1
     5    2    3 1
     6    2    4 1
     7    2   26 1
     8    3   27 1
     9    3   28 1
    10    3   29 1
    11    4    9 ar
    12    4    5 ar
    13    5    6 ar
    14    5   30 1
    15    6    7 ar
    16    6   31 1
    17    7    8 ar
    18    7   10 1
    19    8    9 ar
    20    8   32 1
    21    9   33 1
    22   10   11 2
    23   10   12 am
    24   12   13 1
    25   12   34 1
    26   13   18 ar
    27   13   14 ar
    28   14   15 ar
    29   14   35 1
    30   15   16 ar
    31   15   36 1
    32   16   17 ar
    33   16   19 1
    34   17   18 ar
    35   17   37 1
    36   18   38 1
    37   19   20 2
    38   19   21 2
    39   19   22 1
    40   22   39 1
    41   22   40 1
@<TRIPOS>MOLECULE
ZINC00477228
   41    43     0     0     0
SMALL
USER_CHARGES

@<TRIPOS>ATOM
      1 C1         -1.9535    0.7760    0.8568 C.3       1 <0>        -0.1734
      2 C2         -0.9448    1.6737    0.1877 C.ar      1 <0>        -0.0589
      3 C3          0.0082    1.1333   -0.6565 C.ar      1 <0>        -0.1436
      4 C4          0.9316    1.9541   -1.2772 C.ar      1 <0>        -0.1125
      5 C5          0.9086    3.3166   -1.0514 C.ar      1 <0>        -0.1251
      6 C6         -0.0433    3.8618   -0.1998 C.ar      1 <0>         0.0762
      7 C7         -0.9696    3.0343    0.4222 C.ar      1 <0>        -0.1584
      8 N1         -0.0691    5.2407    0.0313 N.pl3     1 <0>        -0.2623
      9 C8          1.1141    5.9469    0.1285 C.ar      1 <0>         0.2777
     10 N2          1.0917    7.2740    0.2311 N.ar      1 <0>        -0.3420
     11 C9          2.2228    7.9500    0.3288 C.ar      1 <0>         0.1702
     12 N3          3.3808    7.3131    0.3150 N.ar      1 <0>        -0.3434
     13 C10         3.4115    5.9868    0.2076 C.ar      1 <0>         0.2779
     14 N4          2.2760    5.3031    0.1143 N.ar      1 <0>        -0.3667
     15 N5          4.6210    5.3226    0.1937 N.pl3     1 <0>        -0.3644
     16 C11         2.1926    9.4518    0.4500 C.3       1 <0>        -0.2121
     17 S1          2.2363   10.1914   -1.2014 S.3       1 <0>         0.3029
     18 C12         2.1920   11.8999   -0.7728 C.ar      1 <0>        -0.0662
     19 N6          2.1368   12.2452    0.5060 N.ar      1 <0>        -0.2398
     20 C13         2.1080   13.5186    0.8616 C.ar      1 <0>         0.0085
     21 C14         2.1247   14.4960   -0.1216 C.ar      1 <0>        -0.2665
     22 C15         2.1770   14.1002   -1.4489 C.ar      1 <0>         0.0574
     23 N7          2.2092   12.8095   -1.7367 N.ar      1 <0>        -0.1968
     24 C16         2.1963   15.1279   -2.5509 C.3       1 <0>        -0.1692
     25 H1         -1.5596    0.4379    1.8152 H         1 <0>         0.0872
     26 H2         -2.8796    1.3275    1.0188 H         1 <0>         0.0807
     27 H3         -2.1508   -0.0866    0.2203 H         1 <0>         0.0822
     28 H4          0.0283    0.0683   -0.8347 H         1 <0>         0.1294
     29 H5          1.6715    1.5295   -1.9396 H         1 <0>         0.1306
     30 H6          1.6300    3.9573   -1.5367 H         1 <0>         0.1520
     31 H7         -1.7112    3.4552    1.0850 H         1 <0>         0.1322
     32 H8         -0.9178    5.7012    0.1234 H         1 <0>         0.2594
     33 H9          4.6427    4.3560    0.1157 H         1 <0>         0.2419
     34 H10         5.4496    5.8223    0.2619 H         1 <0>         0.2438
     35 H11         1.2792    9.7569    0.9607 H         1 <0>         0.1427
     36 H12         3.0578    9.7877    1.0215 H         1 <0>         0.1427
     37 H13         2.0679   13.7938    1.9051 H         1 <0>         0.1662
     38 H14         2.0972   15.5432    0.1411 H         1 <0>         0.1457
     39 H15         1.1741   15.3578   -2.8513 H         1 <0>         0.0999
     40 H16         2.6826   16.0354   -2.1929 H         1 <0>         0.0876
     41 H17         2.7463   14.7339   -3.4055 H         1 <0>         0.1063
@<TRIPOS>BOND
     1    1    2 1
     2    1   25 1
     3    1   26 1
     4    1   27 1
     5    2    7 ar
     6    2    3 ar
     7    3    4 ar
     8    3   28 1
     9    4    5 ar
    10    4   29 1
    11    5    6 ar
    12    5   30 1
    13    6    7 ar
    14    6    8 1
    15    7   31 1
    16    8    9 1
    17    8   32 1
    18    9   14 ar
    19    9   10 ar
    20   10   11 ar
    21   11   12 ar
    22   11   16 1
    23   12   13 ar
    24   13   14 ar
    25   13   15 1
    26   15   33 1
    27   15   34 1
    28   16   17 1
    29   16   35 1
    30   16   36 1
    31   17   18 1
    32   18   23 ar
    33   18   19 ar
    34   19   20 ar
    35   20   21 ar
    36   20   37 1
    37   21   22 ar
    38   21   38 1
    39   22   23 ar
    40   22   24 1
    41   24   39 1
    42   24   40 1
    43   24   41 1
@<TRIPOS>MOLECULE
ZINC00478429
   43    45     0     0     0
SMALL
USER_CHARGES

@<TRIPOS>ATOM
      1 C1         -5.1068    1.7773   -3.0492 C.ar      1 <0>        -0.1655
      2 C2         -5.2680    0.8257   -2.0588 C.ar      1 <0>        -0.0907
      3 C3         -4.3422    0.7246   -1.0390 C.ar      1 <0>        -0.1872
      4 C4         -3.2484    1.5804   -1.0086 C.ar      1 <0>         0.0835
      5 C5         -3.0929    2.5393   -2.0017 C.ar      1 <0>        -0.1815
      6 C6         -4.0191    2.6308   -3.0220 C.ar      1 <0>        -0.0890
      7 N1         -2.3097    1.4808    0.0218 N.pl3     1 <0>        -0.3237
      8 C7         -1.3237    2.4354    0.1505 C.2       1 <0>         0.1677
      9 C8         -1.6573    3.7884    0.3790 C.2       1 <0>        -0.0079
     10 C9         -0.6748    4.7154    0.4979 C.2       1 <0>        -0.0328
     11 N2          0.6387    4.3679    0.4058 N.am      1 <0>        -0.2454
     12 H1          1.3401    5.0747    0.4978 H         1 <0>         0.2600
     13 C10         1.0119    3.0925    0.1935 C.2       1 <0>         0.3330
     14 O1          2.1955    2.8088    0.1143 O.2       1 <0>        -0.3661
     15 C11         0.0319    2.0804    0.0615 C.2       1 <0>        -0.1502
     16 C12         0.4156    0.7194   -0.1646 C.1       1 <0>        -0.0560
     17 N3          0.7199   -0.3603   -0.3440 N.1       1 <0>        -0.0359
     18 N4         -3.0028    4.1736    0.4776 N.pl3     1 <0>        -0.3119
     19 N5         -3.3324    5.5171    0.6990 N.2       1 <0>        -0.0369
     20 C13        -4.5601    5.8790    0.7257 C.2       1 <0>        -0.1022
     21 C14        -5.6721    4.8559    0.6553 C.3       1 <0>        -0.1592
     22 C15        -6.6430    5.1174    1.8173 C.3       1 <0>        -0.1521
     23 C16        -7.1193    6.5699    1.7618 C.3       1 <0>        -0.1614
     24 C17        -5.9335    7.5129    1.9723 C.3       1 <0>        -0.1583
     25 C18        -4.9359    7.3411    0.8220 C.3       1 <0>        -0.0977
     26 H2         -5.8322    1.8542   -3.8456 H         1 <0>         0.1323
     27 H3         -6.1186    0.1607   -2.0830 H         1 <0>         0.1338
     28 H4         -4.4687   -0.0188   -0.2658 H         1 <0>         0.1333
     29 H5         -2.2460    3.2091   -1.9786 H         1 <0>         0.1457
     30 H6         -3.8962    3.3729   -3.7970 H         1 <0>         0.1350
     31 H7         -2.3520    0.7400    0.6465 H         1 <0>         0.2529
     32 H8         -0.9389    5.7487    0.6685 H         1 <0>         0.1851
     33 H9         -3.7048    3.5096    0.3924 H         1 <0>         0.2390
     34 H10        -6.1986    4.9521   -0.2942 H         1 <0>         0.1038
     35 H11        -5.2535    3.8535    0.7450 H         1 <0>         0.0857
     36 H12        -6.1364    4.9370    2.7654 H         1 <0>         0.0881
     37 H13        -7.5005    4.4501    1.7305 H         1 <0>         0.0856
     38 H14        -7.8596    6.7386    2.5438 H         1 <0>         0.0855
     39 H15        -7.5694    6.7656    0.7885 H         1 <0>         0.0836
     40 H16        -5.4437    7.2758    2.9168 H         1 <0>         0.0896
     41 H17        -6.2881    8.5434    1.9952 H         1 <0>         0.0871
     42 H18        -4.0441    7.9361    1.0189 H         1 <0>         0.1010
     43 H19        -5.3924    7.6642   -0.1136 H         1 <0>         0.1002
@<TRIPOS>BOND
     1    1    6 ar
     2    1    2 ar
     3    1   26 1
     4    2    3 ar
     5    2   27 1
     6    3    4 ar
     7    3   28 1
     8    4    5 ar
     9    4    7 1
    10    5    6 ar
    11    5   29 1
    12    6   30 1
    13    7    8 1
    14    7   31 1
    15    8   15 2
    16    8    9 1
    17    9   10 2
    18    9   18 1
    19   10   11 1
    20   10   32 1
    21   11   12 1
    22   11   13 am
    23   13   14 2
    24   13   15 1
    25   15   16 1
    26   16   17 3
    27   18   19 1
    28   18   33 1
    29   19   20 2
    30   20   25 1
    31   20   21 1
    32   21   22 1
    33   21   34 1
    34   21   35 1
    35   22   23 1
    36   22   36 1
    37   22   37 1
    38   23   24 1
    39   23   38 1
    40   23   39 1
    41   24   25 1
    42   24   40 1
    43   24   41 1
    44   25   42 1
    45   25   43 1
@<TRIPOS>MOLECULE
ZINC00479618
   38    40     0     0     0
SMALL
USER_CHARGES

@<TRIPOS>ATOM
      1 C1          1.2515   -2.1095   -0.9267 C.3       1 <0>        -0.1722
      2 C2          1.2278   -0.6234   -0.6780 C.ar      1 <0>        -0.0904
      3 C3          0.2776   -0.0804    0.1674 C.ar      1 <0>        -0.1116
      4 C4          0.2532    1.2811    0.3975 C.ar      1 <0>        -0.1537
      5 C5          1.1844    2.1053   -0.2213 C.ar      1 <0>         0.0673
      6 C6          2.1380    1.5566   -1.0690 C.ar      1 <0>        -0.1171
      7 C7          2.1566    0.1943   -1.2952 C.ar      1 <0>        -0.1157
      8 N1          1.1621    3.4843    0.0092 N.pl3     1 <0>        -0.2618
      9 C8          2.3471    4.1876    0.1059 C.ar      1 <0>         0.2777
     10 N2          2.3278    5.5144    0.2132 N.ar      1 <0>        -0.3423
     11 C9          3.4608    6.1880    0.3062 C.ar      1 <0>         0.1700
     12 N3          4.6171    5.5481    0.2928 N.ar      1 <0>        -0.3436
     13 C10         4.6445    4.2217    0.1859 C.ar      1 <0>         0.2780
     14 N4          3.5072    3.5404    0.0976 N.ar      1 <0>        -0.3666
     15 N5          5.8524    3.5545    0.1716 N.pl3     1 <0>        -0.3643
     16 C11         3.4344    7.6899    0.4274 C.3       1 <0>        -0.2129
     17 S1          3.3663    8.1530    2.1758 S.3       1 <0>         0.3068
     18 C12         3.3456    9.9085    2.0268 C.ar      1 <0>        -0.0718
     19 N6          3.3852   10.4561    0.8202 N.ar      1 <0>        -0.2342
     20 C13         3.3655   11.7704    0.6735 C.ar      1 <0>         0.0069
     21 C14         3.3142   12.5761    1.8003 C.ar      1 <0>        -0.2689
     22 C15         3.2795   11.9709    3.0470 C.ar      1 <0>         0.0066
     23 N7          3.2963   10.6506    3.1240 N.ar      1 <0>        -0.1920
     24 H1          0.6192   -2.3447   -1.7829 H         1 <0>         0.0845
     25 H2          2.2737   -2.4273   -1.1318 H         1 <0>         0.0805
     26 H3          0.8786   -2.6314   -0.0454 H         1 <0>         0.0807
     27 H4         -0.4464   -0.7217    0.6479 H         1 <0>         0.1322
     28 H5         -0.4920    1.7051    1.0543 H         1 <0>         0.1321
     29 H6          2.8636    2.1947   -1.5514 H         1 <0>         0.1516
     30 H7          2.8976   -0.2329   -1.9546 H         1 <0>         0.1313
     31 H8          0.3146    3.9471    0.1012 H         1 <0>         0.2594
     32 H9          6.6822    4.0522    0.2395 H         1 <0>         0.2438
     33 H10         5.8716    2.5878    0.0937 H         1 <0>         0.2420
     34 H11         4.3346    8.1067   -0.0241 H         1 <0>         0.1427
     35 H12         2.5559    8.0804   -0.0864 H         1 <0>         0.1425
     36 H13         3.3935   12.2106   -0.3123 H         1 <0>         0.1670
     37 H14         3.3011   13.6521    1.7089 H         1 <0>         0.1461
     38 H15         3.2389   12.5702    3.9445 H         1 <0>         0.1695
@<TRIPOS>BOND
     1    1    2 1
     2    1   24 1
     3    1   25 1
     4    1   26 1
     5    2    7 ar
     6    2    3 ar
     7    3    4 ar
     8    3   27 1
     9    4    5 ar
    10    4   28 1
    11    5    6 ar
    12    5    8 1
    13    6    7 ar
    14    6   29 1
    15    7   30 1
    16    8    9 1
    17    8   31 1
    18    9   14 ar
    19    9   10 ar
    20   10   11 ar
    21   11   12 ar
    22   11   16 1
    23   12   13 ar
    24   13   14 ar
    25   13   15 1
    26   15   32 1
    27   15   33 1
    28   16   17 1
    29   16   34 1
    30   16   35 1
    31   17   18 1
    32   18   23 ar
    33   18   19 ar
    34   19   20 ar
    35   20   21 ar
    36   20   36 1
    37   21   22 ar
    38   21   37 1
    39   22   23 ar
    40   22   38 1
@<TRIPOS>MOLECULE
ZINC00480397
   40    42     0     0     0
SMALL
USER_CHARGES

@<TRIPOS>ATOM
      1 C1         -8.3813   -0.2179    8.4416 C.3       1 <0>        -0.0677
      2 N1         -7.1115   -0.3017    9.1673 N.pl3     1 <0>        -0.1604
      3 C2         -6.8539   -1.0232   10.3002 C.2       1 <0>        -0.1333
      4 N2         -5.6072   -0.8155   10.6172 N.2       1 <0>        -0.0822
      5 N3         -5.0616   -0.0225    9.7655 N.2       1 <0>        -0.1069
      6 C3         -5.9385    0.3216    8.8511 C.2       1 <0>        -0.2165
      7 S1         -5.6572    1.3914    7.4797 S.3       1 <0>         0.2602
      8 C4         -3.9154    1.8010    7.7527 C.3       1 <0>        -0.1953
      9 C5         -3.4427    2.7339    6.6677 C.ar      1 <0>         0.1692
     10 N4         -3.5473    4.0413    6.8309 N.ar      1 <0>        -0.3441
     11 C6         -3.1306    4.8686    5.8751 C.ar      1 <0>         0.2768
     12 N5         -2.6087    4.3786    4.7558 N.ar      1 <0>        -0.3727
     13 C7         -2.5052    3.0638    4.5954 C.ar      1 <0>         0.2772
     14 N6         -2.9293    2.2426    5.5537 N.ar      1 <0>        -0.3380
     15 N7         -1.9635    2.5495    3.4340 N.pl3     1 <0>        -0.2433
     16 C8         -1.4105    3.4109    2.4778 C.ar      1 <0>         0.0491
     17 C9         -0.9326    4.6567    2.8575 C.ar      1 <0>        -0.1048
     18 C10        -0.3879    5.5050    1.9121 C.ar      1 <0>        -0.1500
     19 C11        -0.3176    5.1154    0.5874 C.ar      1 <0>        -0.1108
     20 C12        -0.7867    3.8730    0.2024 C.ar      1 <0>        -0.2016
     21 C13        -1.3394    3.0191    1.1428 C.ar      1 <0>         0.0599
     22 O1         -1.8063    1.7991    0.7647 O.3       1 <0>        -0.2217
     23 C14        -1.7007    1.4648   -0.6206 C.3       1 <0>        -0.0593
     24 N8         -3.2399    6.2335    6.0467 N.pl3     1 <0>        -0.3647
     25 H1         -8.4218   -1.0045    7.6881 H         1 <0>         0.0964
     26 H2         -9.2083   -0.3417    9.1408 H         1 <0>         0.0980
     27 H3         -8.4587    0.7548    7.9559 H         1 <0>         0.1075
     28 H4         -7.5552   -1.6460   10.8356 H         1 <0>         0.2098
     29 H5         -3.3200    0.8882    7.7319 H         1 <0>         0.1479
     30 H6         -3.8038    2.2855    8.7227 H         1 <0>         0.1470
     31 H7         -1.9659    1.5918    3.2803 H         1 <0>         0.2692
     32 H8         -0.9866    4.9637    3.8916 H         1 <0>         0.1758
     33 H9         -0.0159    6.4745    2.2090 H         1 <0>         0.1314
     34 H10         0.1089    5.7815   -0.1480 H         1 <0>         0.1294
     35 H11        -0.7262    3.5699   -0.8324 H         1 <0>         0.1366
     36 H12        -2.1085    0.4676   -0.7859 H         1 <0>         0.1081
     37 H13        -0.6527    1.4830   -0.9199 H         1 <0>         0.0683
     38 H14        -2.2602    2.1890   -1.2128 H         1 <0>         0.0698
     39 H15        -2.9356    6.8358    5.3499 H         1 <0>         0.2412
     40 H16        -3.6209    6.5906    6.8641 H         1 <0>         0.2444
@<TRIPOS>BOND
     1    1    2 1
     2    1   25 1
     3    1   26 1
     4    1   27 1
     5    2    6 1
     6    2    3 1
     7    3    4 2
     8    3   28 1
     9    4    5 1
    10    5    6 2
    11    6    7 1
    12    7    8 1
    13    8    9 1
    14    8   29 1
    15    8   30 1
    16    9   14 ar
    17    9   10 ar
    18   10   11 ar
    19   11   12 ar
    20   11   24 1
    21   12   13 ar
    22   13   14 ar
    23   13   15 1
    24   15   16 1
    25   15   31 1
    26   16   21 ar
    27   16   17 ar
    28   17   18 ar
    29   17   32 1
    30   18   19 ar
    31   18   33 1
    32   19   20 ar
    33   19   34 1
    34   20   21 ar
    35   20   35 1
    36   21   22 1
    37   22   23 1
    38   23   36 1
    39   23   37 1
    40   23   38 1
    41   24   39 1
    42   24   40 1
@<TRIPOS>MOLECULE
ZINC00480398
   39    41     0     0     0
SMALL
USER_CHARGES

@<TRIPOS>ATOM
      1 C1         -0.5361   -0.1456    0.4665 C.3       1 <0>        -0.0595
      2 O1         -1.0340    0.7198    1.4889 O.3       1 <0>        -0.2202
      3 C2         -0.2109    0.9677    2.5427 C.ar      1 <0>         0.0616
      4 C3          1.0454    0.3864    2.5943 C.ar      1 <0>        -0.2021
      5 C4          1.8831    0.6436    3.6638 C.ar      1 <0>        -0.1101
      6 C5          1.4667    1.4723    4.6893 C.ar      1 <0>        -0.1507
      7 C6          0.2126    2.0516    4.6482 C.ar      1 <0>        -0.0996
      8 C7         -0.6314    1.8024    3.5758 C.ar      1 <0>         0.0500
      9 N1         -1.9027    2.3888    3.5316 N.pl3     1 <0>        -0.2456
     10 C8         -2.5552    2.7119    4.7049 C.ar      1 <0>         0.2775
     11 N2         -3.7057    3.3809    4.6654 N.ar      1 <0>        -0.3395
     12 C9         -4.3306    3.6905    5.7876 C.ar      1 <0>         0.1704
     13 N3         -3.8168    3.3383    6.9533 N.ar      1 <0>        -0.3451
     14 C10        -2.6671    2.6694    7.0009 C.ar      1 <0>         0.2772
     15 N4         -2.0386    2.3510    5.8745 N.ar      1 <0>        -0.3728
     16 N5         -2.1314    2.3020    8.2185 N.pl3     1 <0>        -0.3652
     17 C11        -5.6326    4.4478    5.7383 C.3       1 <0>        -0.2130
     18 S1         -7.0092    3.2760    5.6492 S.3       1 <0>         0.3079
     19 C12        -8.3654    4.3999    5.6042 C.ar      1 <0>        -0.0717
     20 N6         -8.1274    5.7033    5.6456 N.ar      1 <0>        -0.2341
     21 C13        -9.1226    6.5736    5.6080 C.ar      1 <0>         0.0069
     22 C14       -10.4261    6.1078    5.5357 C.ar      1 <0>        -0.2694
     23 C15       -10.6398    4.7386    5.4996 C.ar      1 <0>         0.0065
     24 N7         -9.5999    3.9221    5.5350 N.ar      1 <0>        -0.1921
     25 H1         -0.3078   -1.1212    0.8957 H         1 <0>         0.0701
     26 H2          0.3692    0.2831    0.0366 H         1 <0>         0.0676
     27 H3         -1.2900   -0.2588   -0.3126 H         1 <0>         0.1085
     28 H4          1.3722   -0.2646    1.7970 H         1 <0>         0.1366
     29 H5          2.8637    0.1924    3.7005 H         1 <0>         0.1293
     30 H6          2.1229    1.6670    5.5247 H         1 <0>         0.1313
     31 H7         -0.1102    2.6985    5.4506 H         1 <0>         0.1690
     32 H8         -2.3248    2.5679    2.6767 H         1 <0>         0.2686
     33 H9         -2.5928    2.5313    9.0403 H         1 <0>         0.2438
     34 H10        -1.2935    1.8146    8.2525 H         1 <0>         0.2410
     35 H11        -5.7323    5.0579    6.6361 H         1 <0>         0.1423
     36 H12        -5.6457    5.0912    4.8585 H         1 <0>         0.1428
     37 H13        -8.9222    7.6345    5.6376 H         1 <0>         0.1668
     38 H14       -11.2574    6.7967    5.5077 H         1 <0>         0.1458
     39 H15       -11.6433    4.3433    5.4430 H         1 <0>         0.1692
@<TRIPOS>BOND
     1    1    2 1
     2    1   25 1
     3    1   26 1
     4    1   27 1
     5    2    3 1
     6    3    8 ar
     7    3    4 ar
     8    4    5 ar
     9    4   28 1
    10    5    6 ar
    11    5   29 1
    12    6    7 ar
    13    6   30 1
    14    7    8 ar
    15    7   31 1
    16    8    9 1
    17    9   10 1
    18    9   32 1
    19   10   15 ar
    20   10   11 ar
    21   11   12 ar
    22   12   13 ar
    23   12   17 1
    24   13   14 ar
    25   14   15 ar
    26   14   16 1
    27   16   33 1
    28   16   34 1
    29   17   18 1
    30   17   35 1
    31   17   36 1
    32   18   19 1
    33   19   24 ar
    34   19   20 ar
    35   20   21 ar
    36   21   22 ar
    37   21   37 1
    38   22   23 ar
    39   22   38 1
    40   23   24 ar
    41   23   39 1
@<TRIPOS>MOLECULE
ZINC00480399
   41    43     0     0     0
SMALL
USER_CHARGES

@<TRIPOS>ATOM
      1 C1         -6.3952    9.3097    5.7936 C.3       1 <0>        -0.0684
      2 N1         -7.3026    8.1614    5.7271 N.pl3     1 <0>        -0.1289
      3 C2         -8.6771    8.2064    5.6607 C.2       1 <0>        -0.1802
      4 C3         -9.1091    6.9347    5.6155 C.2       1 <0>        -0.1448
      5 N2         -8.0388    6.1231    5.6467 N.2       1 <0>        -0.1846
      6 C4         -6.9467    6.8477    5.7196 C.2       1 <0>        -0.1702
      7 S1         -5.2996    6.2255    5.7883 S.3       1 <0>         0.2455
      8 C5         -5.6330    4.4472    5.7383 C.3       1 <0>        -0.1915
      9 C6         -4.3307    3.6904    5.7876 C.ar      1 <0>         0.1700
     10 N3         -3.8171    3.3378    6.9532 N.ar      1 <0>        -0.3440
     11 C7         -2.6673    2.6689    7.0009 C.ar      1 <0>         0.2761
     12 N4         -2.0358    2.3557    5.8747 N.ar      1 <0>        -0.3739
     13 C8         -2.5552    2.7119    4.7049 C.ar      1 <0>         0.2764
     14 N5         -3.7029    3.3856    4.6656 N.ar      1 <0>        -0.3379
     15 N6         -1.9027    2.3888    3.5316 N.pl3     1 <0>        -0.2441
     16 C9         -0.7594    1.5803    3.5658 C.ar      1 <0>         0.0503
     17 C10        -0.5611    0.7003    4.6197 C.ar      1 <0>        -0.1051
     18 C11         0.5680   -0.0961    4.6514 C.ar      1 <0>        -0.1501
     19 C12         1.5018   -0.0183    3.6347 C.ar      1 <0>        -0.1116
     20 C13         1.3082    0.8524    2.5782 C.ar      1 <0>        -0.2017
     21 C14         0.1819    1.6581    2.5418 C.ar      1 <0>         0.0593
     22 O1         -0.0071    2.5190    1.5061 O.3       1 <0>        -0.2215
     23 C15         0.9995    2.5450    0.4921 C.3       1 <0>        -0.0592
     24 N7         -2.1322    2.3007    8.2184 N.pl3     1 <0>        -0.3655
     25 H1         -6.1197    9.6140    4.7838 H         1 <0>         0.0924
     26 H2         -6.8929   10.1371    6.2994 H         1 <0>         0.0947
     27 H3         -5.4981    9.0323    6.3470 H         1 <0>         0.1040
     28 H4         -9.2912    9.0947    5.6472 H         1 <0>         0.1737
     29 H5        -10.1404    6.6191    5.5588 H         1 <0>         0.1776
     30 H6         -6.1609    4.2023    4.8166 H         1 <0>         0.1463
     31 H7         -6.2477    4.1686    6.5942 H         1 <0>         0.1452
     32 H8         -2.2362    2.7217    2.6837 H         1 <0>         0.2690
     33 H9         -1.2887    0.6377    5.4153 H         1 <0>         0.1760
     34 H10         0.7212   -0.7811    5.4722 H         1 <0>         0.1310
     35 H11         2.3827   -0.6425    3.6636 H         1 <0>         0.1290
     36 H12         2.0373    0.9074    1.7834 H         1 <0>         0.1362
     37 H13         1.0852    1.5570    0.0398 H         1 <0>         0.0680
     38 H14         1.9548    2.8256    0.9356 H         1 <0>         0.0697
     39 H15         0.7263    3.2722   -0.2725 H         1 <0>         0.1080
     40 H16        -1.2944    1.8130    8.2524 H         1 <0>         0.2406
     41 H17        -2.5938    2.5297    9.0403 H         1 <0>         0.2441
@<TRIPOS>BOND
     1    1    2 1
     2    1   25 1
     3    1   26 1
     4    1   27 1
     5    2    6 1
     6    2    3 1
     7    3    4 2
     8    3   28 1
     9    4    5 1
    10    4   29 1
    11    5    6 2
    12    6    7 1
    13    7    8 1
    14    8    9 1
    15    8   30 1
    16    8   31 1
    17    9   14 ar
    18    9   10 ar
    19   10   11 ar
    20   11   12 ar
    21   11   24 1
    22   12   13 ar
    23   13   14 ar
    24   13   15 1
    25   15   16 1
    26   15   32 1
    27   16   21 ar
    28   16   17 ar
    29   17   18 ar
    30   17   33 1
    31   18   19 ar
    32   18   34 1
    33   19   20 ar
    34   19   35 1
    35   20   21 ar
    36   20   36 1
    37   21   22 1
    38   22   23 1
    39   23   37 1
    40   23   38 1
    41   23   39 1
    42   24   40 1
    43   24   41 1
@<TRIPOS>MOLECULE
ZINC00484384
   42    44     0     0     0
SMALL
USER_CHARGES

@<TRIPOS>ATOM
      1 C1          2.4798   -2.5446   -1.1121 C.3       1 <0>        -0.0629
      2 O1          1.2060   -1.9381   -0.8844 O.3       1 <0>        -0.2034
      3 C2          1.1424   -0.5829   -0.9757 C.ar      1 <0>         0.0914
      4 C3          2.2840    0.1457   -1.2787 C.ar      1 <0>        -0.2024
      5 C4          2.2238    1.5233   -1.3729 C.ar      1 <0>        -0.1524
      6 C5          1.0228    2.1817   -1.1649 C.ar      1 <0>         0.0177
      7 C6         -0.1262    1.4530   -0.8603 C.ar      1 <0>         0.0834
      8 C7         -0.0621    0.0689   -0.7665 C.ar      1 <0>        -0.1407
      9 N1         -1.3391    2.1126   -0.6558 N.pl3     1 <0>        -0.2098
     10 N2         -2.4024    1.4365   -0.3793 N.2       1 <0>         0.1066
     11 C8         -3.5200    2.0639   -0.0643 C.2       1 <0>        -0.2690
     12 C9         -3.7071    3.5101    0.1619 C.2       1 <0>         0.0609
     13 N3         -4.9644    3.7011    0.4456 N.2       1 <0>        -0.0750
     14 N4         -5.6729    2.5002    0.4464 N.am      1 <0>        -0.2004
     15 C10        -4.8526    1.4737    0.1448 C.2       1 <0>         0.3594
     16 O2         -5.1533    0.2952    0.0623 O.2       1 <0>        -0.3137
     17 C11        -7.0398    2.3780    0.7205 C.ar      1 <0>         0.1020
     18 C12        -7.6474    1.1293    0.6876 C.ar      1 <0>        -0.1617
     19 C13        -8.9953    1.0115    0.9643 C.ar      1 <0>        -0.1076
     20 C14        -9.7423    2.1363    1.2631 C.ar      1 <0>        -0.1523
     21 C15        -9.1417    3.3817    1.2906 C.ar      1 <0>        -0.1137
     22 C16        -7.7931    3.5058    1.0205 C.ar      1 <0>        -0.1464
     23 N5         -2.7212    4.4913    0.0834 N.pl3     1 <0>        -0.4133
     24 O3          0.9645    3.5373   -1.2583 O.3       1 <0>        -0.2339
     25 C17         2.1803    4.2187   -1.5736 C.3       1 <0>        -0.0580
     26 H1          3.1970   -2.1680   -0.3829 H         1 <0>         0.0674
     27 H2          2.3908   -3.6261   -1.0092 H         1 <0>         0.1127
     28 H3          2.8230   -2.3023   -2.1179 H         1 <0>         0.0680
     29 H4          3.2217   -0.3649   -1.4410 H         1 <0>         0.1409
     30 H5          3.1142    2.0871   -1.6093 H         1 <0>         0.1422
     31 H6         -0.9502   -0.4987   -0.5310 H         1 <0>         0.1820
     32 H7         -1.3826    3.0794   -0.7216 H         1 <0>         0.2411
     33 H8         -7.0655    0.2510    0.4500 H         1 <0>         0.1773
     34 H9         -9.4674    0.0404    0.9429 H         1 <0>         0.1333
     35 H10       -10.7970    2.0420    1.4750 H         1 <0>         0.1270
     36 H11        -9.7280    4.2582    1.5240 H         1 <0>         0.1298
     37 H12        -7.3245    4.4786    1.0429 H         1 <0>         0.1492
     38 H13        -2.9430    5.3766   -0.2452 H         1 <0>         0.2386
     39 H14        -1.8129    4.2892    0.3574 H         1 <0>         0.2342
     40 H15         1.9945    5.2919   -1.6174 H         1 <0>         0.1091
     41 H16         2.9240    4.0098   -0.8046 H         1 <0>         0.0704
     42 H17         2.5499    3.8743   -2.5395 H         1 <0>         0.0722
@<TRIPOS>BOND
     1    1    2 1
     2    1   26 1
     3    1   27 1
     4    1   28 1
     5    2    3 1
     6    3    8 ar
     7    3    4 ar
     8    4    5 ar
     9    4   29 1
    10    5    6 ar
    11    5   30 1
    12    6    7 ar
    13    6   24 1
    14    7    8 ar
    15    7    9 1
    16    8   31 1
    17    9   10 1
    18    9   32 1
    19   10   11 2
    20   11   15 1
    21   11   12 1
    22   12   13 2
    23   12   23 1
    24   13   14 1
    25   14   15 am
    26   14   17 1
    27   15   16 2
    28   17   22 ar
    29   17   18 ar
    30   18   19 ar
    31   18   33 1
    32   19   20 ar
    33   19   34 1
    34   20   21 ar
    35   20   35 1
    36   21   22 ar
    37   21   36 1
    38   22   37 1
    39   23   38 1
    40   23   39 1
    41   24   25 1
    42   25   40 1
    43   25   41 1
    44   25   42 1
@<TRIPOS>MOLECULE
ZINC00485187
   40    41     0     0     0
SMALL
USER_CHARGES

@<TRIPOS>ATOM
      1 C1          8.2231    7.7272    1.4888 C.3       1 <0>        -0.1962
      2 C2          7.1057    8.5985    0.9117 C.3       1 <0>        -0.1888
      3 C3          5.8389    7.7886    0.8099 C.2       1 <0>         0.3016
      4 O1          5.8307    6.6287    1.1641 O.2       1 <0>        -0.3503
      5 N1          4.7152    8.3533    0.3253 N.am      1 <0>        -0.3301
      6 C4          3.5213    7.6327    0.3150 C.ar      1 <0>         0.0870
      7 C5          2.3141    8.2863    0.5410 C.ar      1 <0>        -0.1750
      8 C6          1.1336    7.5782    0.5306 C.ar      1 <0>        -0.0459
      9 C7          1.1487    6.2009    0.2930 C.ar      1 <0>        -0.1504
     10 C8          2.3639    5.5464    0.0725 C.ar      1 <0>        -0.0916
     11 C9          3.5401    6.2617    0.0782 C.ar      1 <0>        -0.1370
     12 C10        -0.1145    5.4387    0.2810 C.2       1 <0>         0.3595
     13 O2         -1.1707    6.0088    0.4780 O.2       1 <0>        -0.3251
     14 N2         -0.0981    4.1106    0.0518 N.am      1 <0>        -0.3342
     15 N3         -1.2976    3.3868    0.0404 N.2       1 <0>         0.0178
     16 C11        -1.2737    2.0923   -0.0524 C.2       1 <0>        -0.1169
     17 C12        -0.0957    1.3413    0.4182 C.ar      1 <0>        -0.1077
     18 C13         0.0769    0.0047    0.0485 C.ar      1 <0>        -0.0927
     19 C14         1.1762   -0.6953    0.4962 C.ar      1 <0>        -0.1532
     20 C15         2.1125   -0.0741    1.3126 C.ar      1 <0>         0.0827
     21 C16         1.9454    1.2543    1.6823 C.ar      1 <0>        -0.1503
     22 C17         0.8488    1.9620    1.2401 C.ar      1 <0>        -0.1290
     23 O3          3.1950   -0.7680    1.7512 O.3       1 <0>        -0.2910
     24 H1          7.9354    7.3767    2.4800 H         1 <0>         0.0924
     25 H2          8.3907    6.8711    0.8352 H         1 <0>         0.0908
     26 H3          9.1394    8.3130    1.5624 H         1 <0>         0.0749
     27 H4          7.3935    8.9490   -0.0795 H         1 <0>         0.1004
     28 H5          6.9382    9.4545    1.5653 H         1 <0>         0.1024
     29 H6          4.7368    9.2609   -0.0162 H         1 <0>         0.2349
     30 H7          2.3031    9.3506    0.7245 H         1 <0>         0.1363
     31 H8          0.1967    8.0864    0.7054 H         1 <0>         0.1604
     32 H9          2.3796    4.4815   -0.1066 H         1 <0>         0.1298
     33 H10         4.4789    5.7575   -0.0973 H         1 <0>         0.1696
     34 H11         0.7442    3.6560   -0.1053 H         1 <0>         0.2263
     35 H12        -2.1168    1.5655   -0.4744 H         1 <0>         0.1836
     36 H13        -0.6507   -0.4791   -0.5863 H         1 <0>         0.1378
     37 H14         1.3100   -1.7285    0.2115 H         1 <0>         0.1440
     38 H15         2.6758    1.7332    2.3175 H         1 <0>         0.1477
     39 H16         0.7192    2.9946    1.5286 H         1 <0>         0.1535
     40 H17         3.0551   -1.2246    2.5920 H         1 <0>         0.2320
@<TRIPOS>BOND
     1    1    2 1
     2    1   24 1
     3    1   25 1
     4    1   26 1
     5    2    3 1
     6    2   27 1
     7    2   28 1
     8    3    4 2
     9    3    5 am
    10    5    6 1
    11    5   29 1
    12    6   11 ar
    13    6    7 ar
    14    7    8 ar
    15    7   30 1
    16    8    9 ar
    17    8   31 1
    18    9   10 ar
    19    9   12 1
    20   10   11 ar
    21   10   32 1
    22   11   33 1
    23   12   13 2
    24   12   14 am
    25   14   15 1
    26   14   34 1
    27   15   16 2
    28   16   17 1
    29   16   35 1
    30   17   22 ar
    31   17   18 ar
    32   18   19 ar
    33   18   36 1
    34   19   20 ar
    35   19   37 1
    36   20   21 ar
    37   20   23 1
    38   21   22 ar
    39   21   38 1
    40   22   39 1
    41   23   40 1
@<TRIPOS>MOLECULE
ZINC00486917
   41    44     0     0     0
SMALL
USER_CHARGES

@<TRIPOS>ATOM
      1 C1          4.2099   -1.2322    0.7044 C.ar      1 <0>        -0.1574
      2 C2          3.7916   -0.4150   -0.3336 C.ar      1 <0>        -0.0843
      3 C3          2.6675    0.3732   -0.1926 C.ar      1 <0>        -0.1465
      4 C4          1.9531    0.3596    0.9983 C.ar      1 <0>         0.1308
      5 C5          2.3737   -0.4669    2.0509 C.ar      1 <0>        -0.1688
      6 C6          3.5104   -1.2631    1.8912 C.ar      1 <0>        -0.0862
      7 C7          1.6199   -0.4955    3.3185 C.2       1 <0>         0.3629
      8 O1          0.6849    0.2633    3.4871 O.2       1 <0>        -0.3891
      9 N1          1.9676   -1.3628    4.2898 N.am      1 <0>        -0.4234
     10 N2          0.8222    1.1578    1.1446 N.am      1 <0>        -0.3113
     11 C8          0.0036    1.3657    0.0943 C.2       1 <0>         0.3668
     12 O2          0.2914    0.9170   -0.9995 O.2       1 <0>        -0.3416
     13 C9         -1.2380    2.1281    0.2713 C.2       1 <0>        -0.3384
     14 C10        -1.2121    3.5268    0.2189 C.2       1 <0>         0.2118
     15 C11        -2.4846    4.2325    0.3968 C.ar      1 <0>        -0.1200
     16 C12        -2.5903    5.6270    0.3601 C.ar      1 <0>        -0.0473
     17 C13        -3.8166    6.2082    0.5409 C.ar      1 <0>        -0.1734
     18 C14        -4.9572    5.4429    0.7600 C.ar      1 <0>        -0.0496
     19 C15        -4.8700    4.0687    0.7992 C.ar      1 <0>        -0.1399
     20 C16        -3.6382    3.4751    0.6178 C.ar      1 <0>         0.0990
     21 N3         -3.6507    2.1104    0.6725 N.am      1 <0>        -0.2437
     22 C17        -2.4986    1.4250    0.5078 C.2       1 <0>         0.3852
     23 O3         -2.5096    0.2078    0.5564 O.2       1 <0>        -0.3428
     24 C18        -5.0313    1.6644    0.9188 C.3       1 <0>        -0.0040
     25 C19        -5.8697    2.9563    1.0079 C.3       1 <0>        -0.1272
     26 O4         -0.0614    4.1991    0.0076 O.3       1 <0>        -0.2458
     27 H1          5.0885   -1.8483    0.5825 H         1 <0>         0.1326
     28 H2          4.3460   -0.3982   -1.2602 H         1 <0>         0.1363
     29 H3          2.3455    1.0044   -1.0077 H         1 <0>         0.1652
     30 H4          3.8403   -1.9023    2.6967 H         1 <0>         0.1249
     31 H5          2.7135   -1.9682    4.1553 H         1 <0>         0.2181
     32 H6          1.4719   -1.3816    5.1234 H         1 <0>         0.2321
     33 H7          0.6233    1.5644    2.0025 H         1 <0>         0.2695
     34 H8         -1.7156    6.2373    0.1909 H         1 <0>         0.1509
     35 H9         -3.9001    7.2846    0.5128 H         1 <0>         0.1377
     36 H10        -5.9125    5.9268    0.8998 H         1 <0>         0.1364
     37 H11        -5.3805    1.0441    0.0933 H         1 <0>         0.1080
     38 H12        -5.0879    1.1123    1.8569 H         1 <0>         0.1078
     39 H13        -6.6273    2.9734    0.2244 H         1 <0>         0.1058
     40 H14        -6.3363    3.0404    1.9894 H         1 <0>         0.1056
     41 H15         0.6986    3.6300   -0.1758 H         1 <0>         0.2533
@<TRIPOS>BOND
     1    1    6 ar
     2    1    2 ar
     3    1   27 1
     4    2    3 ar
     5    2   28 1
     6    3    4 ar
     7    3   29 1
     8    4    5 ar
     9    4   10 1
    10    5    6 ar
    11    5    7 1
    12    6   30 1
    13    7    8 2
    14    7    9 am
    15    9   31 1
    16    9   32 1
    17   10   11 am
    18   10   33 1
    19   11   12 2
    20   11   13 1
    21   13   22 1
    22   13   14 2
    23   14   15 1
    24   14   26 1
    25   15   20 ar
    26   15   16 ar
    27   16   17 ar
    28   16   34 1
    29   17   18 ar
    30   17   35 1
    31   18   19 ar
    32   18   36 1
    33   19   25 1
    34   19   20 ar
    35   20   21 1
    36   21   22 am
    37   21   24 1
    38   22   23 2
    39   24   25 1
    40   24   37 1
    41   24   38 1
    42   25   39 1
    43   25   40 1
    44   26   41 1
@<TRIPOS>MOLECULE
ZINC00488644
   42    45     0     0     0
SMALL
USER_CHARGES

@<TRIPOS>ATOM
      1 C1          5.2388    2.8606   -0.8733 C.3       1 <0>        -0.0657
      2 O1          3.9101    2.4267   -0.5764 O.3       1 <0>        -0.2065
      3 C2          3.3197    1.5930   -1.4705 C.ar      1 <0>         0.1274
      4 C3          4.0087    1.2007   -2.6120 C.ar      1 <0>        -0.2222
      5 C4          3.4135    0.3552   -3.5216 C.ar      1 <0>        -0.0672
      6 C5          2.1146   -0.1085   -3.2955 C.ar      1 <0>        -0.1101
      7 C6          1.4276    0.2837   -2.1439 C.ar      1 <0>        -0.0245
      8 C7          2.0284    1.1339   -1.2418 C.ar      1 <0>        -0.1608
      9 C8          1.2864    1.5618   -0.0018 C.3       1 <0>         0.0476
     10 O2         -0.0110    0.9628    0.0073 O.3       1 <0>        -0.3454
     11 C9          1.4728   -1.0148   -4.2676 C.2       1 <0>         0.2204
     12 N1          2.1723   -1.3794   -5.3840 N.am      1 <0>        -0.3081
     13 H1          3.0977   -1.0294   -5.5292 H         1 <0>         0.2550
     14 C10         1.6154   -2.2130   -6.2933 C.2       1 <0>         0.3729
     15 O3          2.2236   -2.5535   -7.2925 O.2       1 <0>        -0.3534
     16 C11         0.2558   -2.6866   -6.0362 C.2       1 <0>        -0.3392
     17 C12        -0.6397   -3.5309   -6.7190 C.2       1 <0>        -0.0528
     18 N2         -1.7417   -3.6108   -6.0248 N.2       1 <0>        -0.0620
     19 N3         -1.6239   -2.8320   -4.8668 N.pl3     1 <0>        -0.0751
     20 C13        -0.3895   -2.2550   -4.8644 C.2       1 <0>         0.1178
     21 N4          0.2527   -1.4326   -4.0268 N.2       1 <0>        -0.2451
     22 C14        -2.6058   -2.6736   -3.8809 C.ar      1 <0>         0.0738
     23 C15        -2.2392   -2.5492   -2.5473 C.ar      1 <0>        -0.1271
     24 C16        -3.2097   -2.3878   -1.5780 C.ar      1 <0>        -0.1170
     25 C17        -4.5459   -2.3615   -1.9330 C.ar      1 <0>        -0.1289
     26 C18        -4.9146   -2.4904   -3.2596 C.ar      1 <0>        -0.1187
     27 C19        -3.9486   -2.6463   -4.2343 C.ar      1 <0>        -0.1168
     28 H2          5.2421    3.3983   -1.8215 H         1 <0>         0.0732
     29 H3          5.5914    3.5202   -0.0804 H         1 <0>         0.1153
     30 H4          5.8965    1.9943   -0.9446 H         1 <0>         0.0720
     31 H5          5.0126    1.5593   -2.7858 H         1 <0>         0.1445
     32 H6          3.9498    0.0506   -4.4081 H         1 <0>         0.1293
     33 H7          0.4254   -0.0759   -1.9633 H         1 <0>         0.1738
     34 H8          1.1856    2.6471    0.0050 H         1 <0>         0.1280
     35 H9          1.8401    1.2428    0.8812 H         1 <0>         0.0784
     36 H10         0.0021   -0.0041    0.0020 H         1 <0>         0.2104
     37 H11        -0.4472   -4.0285   -7.6581 H         1 <0>         0.2020
     38 H12        -1.1960   -2.5745   -2.2688 H         1 <0>         0.1488
     39 H13        -2.9249   -2.2862   -0.5412 H         1 <0>         0.1345
     40 H14        -5.3032   -2.2397   -1.1727 H         1 <0>         0.1328
     41 H15        -5.9590   -2.4694   -3.5337 H         1 <0>         0.1365
     42 H16        -4.2372   -2.7465   -5.2702 H         1 <0>         0.1521
@<TRIPOS>BOND
     1    1    2 1
     2    1   28 1
     3    1   29 1
     4    1   30 1
     5    2    3 1
     6    3    8 ar
     7    3    4 ar
     8    4    5 ar
     9    4   31 1
    10    5    6 ar
    11    5   32 1
    12    6    7 ar
    13    6   11 1
    14    7    8 ar
    15    7   33 1
    16    8    9 1
    17    9   10 1
    18    9   34 1
    19    9   35 1
    20   10   36 1
    21   11   21 2
    22   11   12 1
    23   12   13 1
    24   12   14 am
    25   14   15 2
    26   14   16 1
    27   16   20 2
    28   16   17 1
    29   17   18 2
    30   17   37 1
    31   18   19 1
    32   19   20 1
    33   19   22 1
    34   20   21 1
    35   22   27 ar
    36   22   23 ar
    37   23   24 ar
    38   23   38 1
    39   24   25 ar
    40   24   39 1
    41   25   26 ar
    42   25   40 1
    43   26   27 ar
    44   26   41 1
    45   27   42 1
@<TRIPOS>MOLECULE
ZINC00488644
   42    45     0     0     0
SMALL
USER_CHARGES

@<TRIPOS>ATOM
      1 C1          5.2397    2.8586   -0.8721 C.3       1 <0>        -0.0639
      2 O1          3.9110    2.4247   -0.5752 O.3       1 <0>        -0.2117
      3 C2          3.3205    1.5913   -1.4695 C.ar      1 <0>         0.1215
      4 C3          4.0093    1.1994   -2.6112 C.ar      1 <0>        -0.2375
      5 C4          3.4140    0.3542   -3.5210 C.ar      1 <0>        -0.0354
      6 C5          2.1151   -0.1095   -3.2949 C.ar      1 <0>        -0.0825
      7 C6          1.4282    0.2824   -2.1431 C.ar      1 <0>        -0.0371
      8 C7          2.0292    1.1322   -1.2408 C.ar      1 <0>        -0.1707
      9 C8          1.2873    1.5598   -0.0005 C.3       1 <0>         0.0493
     10 O2         -0.0101    0.9609    0.0085 O.3       1 <0>        -0.3488
     11 C9          1.4731   -1.0154   -4.2672 C.ar      1 <0>         0.2068
     12 N1          2.1719   -1.3785   -5.3846 N.ar      1 <0>        -0.3013
     13 H1          1.6523   -3.1671   -7.8376 H         1 <0>         0.2724
     14 C10         1.6149   -2.2120   -6.2939 C.ar      1 <0>         0.2826
     15 O3          2.2244   -2.5552   -7.2914 O.3       1 <0>        -0.1613
     16 C11         0.2613   -2.6981   -6.0291 C.ar      1 <0>        -0.4211
     17 C12        -0.6310   -3.5493   -6.7076 C.2       1 <0>        -0.1001
     18 N2         -1.7312   -3.6330   -6.0110 N.2       1 <0>        -0.0304
     19 N3         -1.6154   -2.8501   -4.8556 N.pl3     1 <0>        -0.0945
     20 C13        -0.3839   -2.2668   -4.8571 C.ar      1 <0>         0.1652
     21 N4          0.2556   -1.4388   -4.0230 N.ar      1 <0>        -0.2810
     22 C14        -2.5963   -2.6939   -3.8684 C.ar      1 <0>         0.0758
     23 C15        -2.2280   -2.5637   -2.5358 C.ar      1 <0>        -0.1237
     24 C16        -3.1975   -2.4045   -1.5652 C.ar      1 <0>        -0.1152
     25 C17        -4.5345   -2.3860   -1.9179 C.ar      1 <0>        -0.1291
     26 C18        -4.9049   -2.5206   -3.2435 C.ar      1 <0>        -0.1188
     27 C19        -3.9398   -2.6744   -4.2194 C.ar      1 <0>        -0.1211
     28 H2          5.2430    3.3966   -1.8201 H         1 <0>         0.0720
     29 H3          5.5925    3.5179   -0.0790 H         1 <0>         0.1099
     30 H4          5.8974    1.9923   -0.9437 H         1 <0>         0.0707
     31 H5          5.0132    1.5580   -2.7850 H         1 <0>         0.1399
     32 H6          3.9502    0.0498   -4.4076 H         1 <0>         0.1598
     33 H7          0.4260   -0.0772   -1.9625 H         1 <0>         0.1662
     34 H8          1.1866    2.6451    0.0066 H         1 <0>         0.1242
     35 H9          1.8411    1.2405    0.8823 H         1 <0>         0.0743
     36 H10         0.0029   -0.0060    0.0029 H         1 <0>         0.2089
     37 H11        -0.4376   -4.0486   -7.6456 H         1 <0>         0.1794
     38 H12        -1.1841   -2.5829   -2.2591 H         1 <0>         0.1529
     39 H13        -2.9114   -2.2984   -0.5292 H         1 <0>         0.1361
     40 H14        -5.2910   -2.2658   -1.1566 H         1 <0>         0.1329
     41 H15        -5.9499   -2.5057   -3.5157 H         1 <0>         0.1357
     42 H16        -4.2298   -2.7791   -5.2545 H         1 <0>         0.1487
@<TRIPOS>BOND
     1    1    2 1
     2    1   28 1
     3    1   29 1
     4    1   30 1
     5    2    3 1
     6    3    8 ar
     7    3    4 ar
     8    4    5 ar
     9    4   31 1
    10    5    6 ar
    11    5   32 1
    12    6    7 ar
    13    6   11 1
    14    7    8 ar
    15    7   33 1
    16    8    9 1
    17    9   10 1
    18    9   34 1
    19    9   35 1
    20   10   36 1
    21   11   21 ar
    22   11   12 ar
    23   12   14 ar
    24   13   15 1
    25   14   15 1
    26   14   16 ar
    27   16   17 1
    28   16   20 ar
    29   17   18 2
    30   17   37 1
    31   18   19 1
    32   19   20 1
    33   19   22 1
    34   20   21 ar
    35   22   27 ar
    36   22   23 ar
    37   23   24 ar
    38   23   38 1
    39   24   25 ar
    40   24   39 1
    41   25   26 ar
    42   25   40 1
    43   26   27 ar
    44   26   41 1
    45   27   42 1
@<TRIPOS>MOLECULE
ZINC00488644
   42    45     0     0     0
SMALL
USER_CHARGES

@<TRIPOS>ATOM
      1 C1          5.2396    2.8589   -0.8722 C.3       1 <0>        -0.0657
      2 O1          3.9108    2.4253   -0.5755 O.3       1 <0>        -0.2089
      3 C2          3.3203    1.5918   -1.4697 C.ar      1 <0>         0.1287
      4 C3          4.0093    1.1995   -2.6112 C.ar      1 <0>        -0.2284
      5 C4          3.4140    0.3542   -3.5210 C.ar      1 <0>        -0.0115
      6 C5          2.1149   -0.1092   -3.2950 C.ar      1 <0>        -0.1137
      7 C6          1.4279    0.2830   -2.1435 C.ar      1 <0>        -0.0777
      8 C7          2.0288    1.1329   -1.2412 C.ar      1 <0>        -0.1551
      9 C8          1.2868    1.5609   -0.0012 C.3       1 <0>         0.0462
     10 O2         -0.0107    0.9621    0.0077 O.3       1 <0>        -0.3483
     11 C9          1.4730   -1.0153   -4.2673 C.2       1 <0>         0.2065
     12 N1          2.1725   -1.3799   -5.3837 N.2       1 <0>        -0.2877
     13 H1         -0.2081   -1.1323   -3.1917 H         1 <0>         0.2478
     14 C10         1.6155   -2.2133   -6.2931 C.2       1 <0>         0.3400
     15 O3          2.2237   -2.5538   -7.2923 O.2       1 <0>        -0.3185
     16 C11         0.2602   -2.6959   -6.0304 C.2       1 <0>        -0.3202
     17 C12        -0.6328   -3.5455   -6.7099 C.2       1 <0>        -0.0501
     18 N2         -1.7336   -3.6281   -6.0141 N.2       1 <0>        -0.0627
     19 N3         -1.6174   -2.8459   -4.8582 N.pl3     1 <0>        -0.1013
     20 C13        -0.3853   -2.2640   -4.8588 C.2       1 <0>         0.0901
     21 N4          0.2548   -1.4371   -4.0240 N.pl3     1 <0>        -0.2066
     22 C14        -2.5986   -2.6890   -3.8714 C.ar      1 <0>         0.0724
     23 C15        -2.2308   -2.5597   -2.5386 C.ar      1 <0>        -0.1679
     24 C16        -3.2006   -2.3998   -1.5684 C.ar      1 <0>        -0.1053
     25 C17        -4.5374   -2.3797   -1.9217 C.ar      1 <0>        -0.1290
     26 C18        -4.9073   -2.5135   -3.2475 C.ar      1 <0>        -0.1068
     27 C19        -3.9420   -2.6679   -4.2231 C.ar      1 <0>        -0.1127
     28 H2          5.2431    3.3967   -1.8204 H         1 <0>         0.0752
     29 H3          5.5923    3.5183   -0.0792 H         1 <0>         0.1148
     30 H4          5.8971    1.9925   -0.9436 H         1 <0>         0.0740
     31 H5          5.0133    1.5579   -2.7849 H         1 <0>         0.1484
     32 H6          3.9503    0.0496   -4.4075 H         1 <0>         0.1759
     33 H7          0.4256   -0.0764   -1.9630 H         1 <0>         0.1302
     34 H8          1.1863    2.6462    0.0057 H         1 <0>         0.1306
     35 H9          1.8404    1.2416    0.8818 H         1 <0>         0.0815
     36 H10         0.0022   -0.0048    0.0023 H         1 <0>         0.2036
     37 H11        -0.4395   -4.0447   -7.6480 H         1 <0>         0.2089
     38 H12        -1.1871   -2.5802   -2.2614 H         1 <0>         0.1261
     39 H13        -2.9149   -2.2944   -0.5322 H         1 <0>         0.1378
     40 H14        -5.2942   -2.2591   -1.1607 H         1 <0>         0.1384
     41 H15        -5.9521   -2.4973   -3.5203 H         1 <0>         0.1421
     42 H16        -4.2315   -2.7719   -5.2583 H         1 <0>         0.1591
@<TRIPOS>BOND
     1    1    2 1
     2    1   28 1
     3    1   29 1
     4    1   30 1
     5    2    3 1
     6    3    8 ar
     7    3    4 ar
     8    4    5 ar
     9    4   31 1
    10    5    6 ar
    11    5   32 1
    12    6    7 ar
    13    6   11 1
    14    7    8 ar
    15    7   33 1
    16    8    9 1
    17    9   10 1
    18    9   34 1
    19    9   35 1
    20   10   36 1
    21   11   21 1
    22   11   12 2
    23   12   14 1
    24   13   21 1
    25   14   15 2
    26   14   16 1
    27   16   17 1
    28   16   20 2
    29   17   18 2
    30   17   37 1
    31   18   19 1
    32   19   20 1
    33   19   22 1
    34   20   21 1
    35   22   27 ar
    36   22   23 ar
    37   23   24 ar
    38   23   38 1
    39   24   25 ar
    40   24   39 1
    41   25   26 ar
    42   25   40 1
    43   26   27 ar
    44   26   41 1
    45   27   42 1
@<TRIPOS>MOLECULE
ZINC00488644
   42    45     0     0     0
SMALL
USER_CHARGES

@<TRIPOS>ATOM
      1 C1          5.2397    2.8586   -0.8721 C.3       1 <0>        -0.0639
      2 O1          3.9110    2.4247   -0.5752 O.3       1 <0>        -0.2117
      3 C2          3.3205    1.5913   -1.4695 C.ar      1 <0>         0.1215
      4 C3          4.0093    1.1994   -2.6112 C.ar      1 <0>        -0.2375
      5 C4          3.4140    0.3542   -3.5210 C.ar      1 <0>        -0.0354
      6 C5          2.1151   -0.1095   -3.2949 C.ar      1 <0>        -0.0825
      7 C6          1.4282    0.2824   -2.1431 C.ar      1 <0>        -0.0371
      8 C7          2.0292    1.1322   -1.2408 C.ar      1 <0>        -0.1707
      9 C8          1.2873    1.5598   -0.0005 C.3       1 <0>         0.0493
     10 O2         -0.0101    0.9609    0.0085 O.3       1 <0>        -0.3488
     11 C9          1.4731   -1.0154   -4.2672 C.ar      1 <0>         0.2068
     12 N1          2.1719   -1.3785   -5.3846 N.ar      1 <0>        -0.3013
     13 H1          1.6523   -3.1671   -7.8376 H         1 <0>         0.2724
     14 C10         1.6149   -2.2120   -6.2939 C.ar      1 <0>         0.2826
     15 O3          2.2244   -2.5552   -7.2914 O.3       1 <0>        -0.1613
     16 C11         0.2613   -2.6981   -6.0291 C.ar      1 <0>        -0.4211
     17 C12        -0.6310   -3.5493   -6.7076 C.2       1 <0>        -0.1001
     18 N2         -1.7312   -3.6330   -6.0110 N.2       1 <0>        -0.0304
     19 N3         -1.6154   -2.8501   -4.8556 N.pl3     1 <0>        -0.0945
     20 C13        -0.3839   -2.2668   -4.8571 C.ar      1 <0>         0.1652
     21 N4          0.2556   -1.4388   -4.0230 N.ar      1 <0>        -0.2810
     22 C14        -2.5963   -2.6939   -3.8684 C.ar      1 <0>         0.0758
     23 C15        -2.2280   -2.5637   -2.5358 C.ar      1 <0>        -0.1237
     24 C16        -3.1975   -2.4045   -1.5652 C.ar      1 <0>        -0.1152
     25 C17        -4.5345   -2.3860   -1.9179 C.ar      1 <0>        -0.1291
     26 C18        -4.9049   -2.5206   -3.2435 C.ar      1 <0>        -0.1188
     27 C19        -3.9398   -2.6744   -4.2194 C.ar      1 <0>        -0.1211
     28 H2          5.2430    3.3966   -1.8201 H         1 <0>         0.0720
     29 H3          5.5925    3.5179   -0.0790 H         1 <0>         0.1099
     30 H4          5.8974    1.9923   -0.9437 H         1 <0>         0.0707
     31 H5          5.0132    1.5580   -2.7850 H         1 <0>         0.1399
     32 H6          3.9502    0.0498   -4.4076 H         1 <0>         0.1598
     33 H7          0.4260   -0.0772   -1.9625 H         1 <0>         0.1662
     34 H8          1.1866    2.6451    0.0066 H         1 <0>         0.1242
     35 H9          1.8411    1.2405    0.8823 H         1 <0>         0.0743
     36 H10         0.0029   -0.0060    0.0029 H         1 <0>         0.2089
     37 H11        -0.4376   -4.0486   -7.6456 H         1 <0>         0.1794
     38 H12        -1.1841   -2.5829   -2.2591 H         1 <0>         0.1529
     39 H13        -2.9114   -2.2984   -0.5292 H         1 <0>         0.1361
     40 H14        -5.2910   -2.2658   -1.1566 H         1 <0>         0.1329
     41 H15        -5.9499   -2.5057   -3.5157 H         1 <0>         0.1357
     42 H16        -4.2298   -2.7791   -5.2545 H         1 <0>         0.1487
@<TRIPOS>BOND
     1    1    2 1
     2    1   28 1
     3    1   29 1
     4    1   30 1
     5    2    3 1
     6    3    8 ar
     7    3    4 ar
     8    4    5 ar
     9    4   31 1
    10    5    6 ar
    11    5   32 1
    12    6    7 ar
    13    6   11 1
    14    7    8 ar
    15    7   33 1
    16    8    9 1
    17    9   10 1
    18    9   34 1
    19    9   35 1
    20   10   36 1
    21   11   21 ar
    22   11   12 ar
    23   12   14 ar
    24   13   15 1
    25   14   15 1
    26   14   16 ar
    27   16   17 1
    28   16   20 ar
    29   17   18 2
    30   17   37 1
    31   18   19 1
    32   19   20 1
    33   19   22 1
    34   20   21 ar
    35   22   27 ar
    36   22   23 ar
    37   23   24 ar
    38   23   38 1
    39   24   25 ar
    40   24   39 1
    41   25   26 ar
    42   25   40 1
    43   26   27 ar
    44   26   41 1
    45   27   42 1
@<TRIPOS>MOLECULE
ZINC00493329
   40    41     0     0     0
SMALL
USER_CHARGES

@<TRIPOS>ATOM
      1 C1        -11.9160    3.6164    1.0205 C.3       1 <0>        -0.1963
      2 C2        -10.8090    2.7490    0.4179 C.3       1 <0>        -0.1887
      3 C3         -9.5422    3.5576    0.3058 C.2       1 <0>         0.3008
      4 O1         -9.5264    4.7137    0.6717 O.2       1 <0>        -0.3458
      5 N1         -8.4269    2.9959   -0.2012 N.am      1 <0>        -0.3311
      6 C4         -7.2317    3.7139   -0.2209 C.ar      1 <0>         0.0872
      7 C5         -7.2507    5.0875   -0.4417 C.ar      1 <0>        -0.1393
      8 C6         -6.0727    5.7995   -0.4618 C.ar      1 <0>        -0.0457
      9 C7         -4.8564    5.1409   -0.2601 C.ar      1 <0>        -0.1500
     10 C8         -4.8406    3.7601   -0.0438 C.ar      1 <0>        -0.0916
     11 C9         -6.0228    3.0552   -0.0193 C.ar      1 <0>        -0.1731
     12 C10        -3.5918    5.9006   -0.2814 C.2       1 <0>         0.3590
     13 O2         -3.6068    7.1012   -0.4747 O.2       1 <0>        -0.3205
     14 N2         -2.4199    5.2640   -0.0867 N.am      1 <0>        -0.3354
     15 N3         -1.2191    5.9853   -0.1069 N.2       1 <0>         0.0240
     16 C11        -0.0844    5.3584   -0.0461 C.2       1 <0>        -0.1211
     17 C12         0.0126    3.9624   -0.5116 C.ar      1 <0>        -0.0793
     18 C13        -1.0069    3.4108   -1.2920 C.ar      1 <0>        -0.1558
     19 C14        -0.9092    2.1067   -1.7309 C.ar      1 <0>        -0.1123
     20 C15         0.1895    1.3384   -1.3914 C.ar      1 <0>        -0.1456
     21 C16         1.2074    1.8773   -0.6161 C.ar      1 <0>         0.0752
     22 C17         1.1235    3.1870   -0.1748 C.ar      1 <0>        -0.1334
     23 O3          2.2871    1.1188   -0.2905 O.3       1 <0>        -0.2904
     24 H1        -11.6129    3.9561    2.0108 H         1 <0>         0.0930
     25 H2        -12.0915    4.4794    0.3782 H         1 <0>         0.0913
     26 H3        -12.8322    3.0315    1.1016 H         1 <0>         0.0747
     27 H4        -11.1121    2.4092   -0.5724 H         1 <0>         0.0999
     28 H5        -10.6335    1.8859    1.0602 H         1 <0>         0.1017
     29 H6         -8.4556    2.0921   -0.5524 H         1 <0>         0.2335
     30 H7         -8.1909    5.5958   -0.5972 H         1 <0>         0.1727
     31 H8         -6.0882    6.8657   -0.6329 H         1 <0>         0.1636
     32 H9         -3.9022    3.2474    0.1084 H         1 <0>         0.1263
     33 H10        -6.0116    1.9890    0.1522 H         1 <0>         0.1327
     34 H11        -2.4079    4.3064    0.0675 H         1 <0>         0.2259
     35 H12         0.7888    5.8590    0.3455 H         1 <0>         0.1854
     36 H13        -1.8682    4.0066   -1.5555 H         1 <0>         0.1519
     37 H14        -1.6953    1.6830   -2.3383 H         1 <0>         0.1368
     38 H15         0.2580    0.3167   -1.7344 H         1 <0>         0.1428
     39 H16         1.9150    3.6074    0.4277 H         1 <0>         0.1458
     40 H17         3.0122    1.1726   -0.9281 H         1 <0>         0.2311
@<TRIPOS>BOND
     1    1    2 1
     2    1   24 1
     3    1   25 1
     4    1   26 1
     5    2    3 1
     6    2   27 1
     7    2   28 1
     8    3    4 2
     9    3    5 am
    10    5    6 1
    11    5   29 1
    12    6   11 ar
    13    6    7 ar
    14    7    8 ar
    15    7   30 1
    16    8    9 ar
    17    8   31 1
    18    9   10 ar
    19    9   12 1
    20   10   11 ar
    21   10   32 1
    22   11   33 1
    23   12   13 2
    24   12   14 am
    25   14   15 1
    26   14   34 1
    27   15   16 2
    28   16   17 1
    29   16   35 1
    30   17   22 ar
    31   17   18 ar
    32   18   19 ar
    33   18   36 1
    34   19   20 ar
    35   19   37 1
    36   20   21 ar
    37   20   38 1
    38   21   22 ar
    39   21   23 1
    40   22   39 1
    41   23   40 1
@<TRIPOS>MOLECULE
ZINC00493385
   41    42     0     0     0
SMALL
USER_CHARGES

@<TRIPOS>ATOM
      1 C1          1.2154    2.4090    6.0859 C.3       1 <0>        -0.2409
      2 C2          0.1067    3.0300    5.2758 C.2       1 <0>         0.3018
      3 O1         -0.1904    4.1935    5.4462 O.2       1 <0>        -0.3518
      4 N1         -0.5548    2.2925    4.3621 N.am      1 <0>        -0.3303
      5 C3         -1.6428    2.8377    3.6812 C.ar      1 <0>         0.0855
      6 C4         -1.6424    4.1862    3.3389 C.ar      1 <0>        -0.1383
      7 C5         -2.7124    4.7264    2.6617 C.ar      1 <0>        -0.0938
      8 C6         -3.8048    3.9210    2.3278 C.ar      1 <0>        -0.1475
      9 C7         -3.8044    2.5679    2.6783 C.ar      1 <0>        -0.0458
     10 C8         -2.7288    2.0331    3.3508 C.ar      1 <0>        -0.1734
     11 C9         -4.9556    4.4976    1.6065 C.2       1 <0>         0.3598
     12 O2         -5.9053    3.7953    1.3163 O.2       1 <0>        -0.3250
     13 N2         -4.9544    5.8025    1.2693 N.am      1 <0>        -0.3412
     14 N3         -6.0471    6.3500    0.5845 N.2       1 <0>         0.0176
     15 C10        -5.9871    7.5655    0.1327 C.2       1 <0>        -0.1096
     16 C11        -4.6866    8.2531    0.0376 C.ar      1 <0>        -0.1240
     17 C12        -3.5046    7.5106   -0.0238 C.ar      1 <0>        -0.1169
     18 C13        -2.2895    8.1557   -0.1177 C.ar      1 <0>        -0.2103
     19 C14        -2.2362    9.5418   -0.1406 C.ar      1 <0>         0.0838
     20 C15        -3.4104   10.2888   -0.0744 C.ar      1 <0>         0.0462
     21 C16        -4.6326    9.6492    0.0144 C.ar      1 <0>        -0.0968
     22 O3         -3.3541   11.6474   -0.0977 O.3       1 <0>        -0.2736
     23 O4         -1.0353   10.1728   -0.2275 O.3       1 <0>        -0.1957
     24 C17         0.1286    9.3463   -0.2919 C.3       1 <0>        -0.0669
     25 H1          1.9991    2.0539    5.4169 H         1 <0>         0.0959
     26 H2          1.6285    3.1532    6.7668 H         1 <0>         0.1211
     27 H3          0.8203    1.5709    6.6600 H         1 <0>         0.0994
     28 H4         -0.2715    1.3838    4.1752 H         1 <0>         0.2352
     29 H5         -0.7999    4.8090    3.6011 H         1 <0>         0.1679
     30 H6         -2.7095    5.7723    2.3924 H         1 <0>         0.1283
     31 H7         -4.6467    1.9426    2.4215 H         1 <0>         0.1613
     32 H8         -2.7278    0.9877    3.6219 H         1 <0>         0.1368
     33 H9         -4.1970    6.3626    1.5008 H         1 <0>         0.2279
     34 H10        -6.8900    8.0730   -0.1734 H         1 <0>         0.1849
     35 H11        -3.5429    6.4315   -0.0020 H         1 <0>         0.1542
     36 H12        -1.3768    7.5806   -0.1692 H         1 <0>         0.1432
     37 H13        -5.5435   10.2271    0.0654 H         1 <0>         0.1507
     38 H14        -3.2804   12.0530    0.7770 H         1 <0>         0.2275
     39 H15         0.1862    8.7292    0.6047 H         1 <0>         0.0672
     40 H16         0.0705    8.7048   -1.1713 H         1 <0>         0.0718
     41 H17         1.0170    9.9743   -0.3584 H         1 <0>         0.1137
@<TRIPOS>BOND
     1    1    2 1
     2    1   25 1
     3    1   26 1
     4    1   27 1
     5    2    3 2
     6    2    4 am
     7    4    5 1
     8    4   28 1
     9    5   10 ar
    10    5    6 ar
    11    6    7 ar
    12    6   29 1
    13    7    8 ar
    14    7   30 1
    15    8    9 ar
    16    8   11 1
    17    9   10 ar
    18    9   31 1
    19   10   32 1
    20   11   12 2
    21   11   13 am
    22   13   14 1
    23   13   33 1
    24   14   15 2
    25   15   16 1
    26   15   34 1
    27   16   21 ar
    28   16   17 ar
    29   17   18 ar
    30   17   35 1
    31   18   19 ar
    32   18   36 1
    33   19   20 ar
    34   19   23 1
    35   20   21 ar
    36   20   22 1
    37   21   37 1
    38   22   38 1
    39   23   24 1
    40   24   39 1
    41   24   40 1
    42   24   41 1
@<TRIPOS>MOLECULE
ZINC00493386
   41    42     0     0     0
SMALL
USER_CHARGES

@<TRIPOS>ATOM
      1 C1          2.3467    0.8622    0.7482 C.3       1 <0>        -0.2360
      2 C2          1.0253    1.5747    0.6170 C.2       1 <0>         0.3020
      3 O1          0.8944    2.6961    1.0600 O.2       1 <0>        -0.3531
      4 N1         -0.0111    0.9658    0.0074 N.am      1 <0>        -0.3289
      5 C3         -1.2584    1.5881   -0.0353 C.ar      1 <0>         0.0857
      6 C4         -1.3399    2.9721   -0.1525 C.ar      1 <0>        -0.1374
      7 C5         -2.5696    3.5891   -0.2006 C.ar      1 <0>        -0.0900
      8 C6         -3.7369    2.8245   -0.1204 C.ar      1 <0>        -0.1476
      9 C7         -3.6512    1.4349    0.0030 C.ar      1 <0>        -0.0461
     10 C8         -2.4183    0.8240    0.0452 C.ar      1 <0>        -0.1740
     11 C9         -5.0566    3.4828   -0.1665 C.2       1 <0>         0.3672
     12 O2         -6.0715    2.8161   -0.0970 O.2       1 <0>        -0.3281
     13 N2         -5.1374    4.8229   -0.2855 N.am      1 <0>        -0.3284
     14 N3         -6.3905    5.4479   -0.3293 N.2       1 <0>         0.0031
     15 C10        -6.4684    6.7386   -0.4439 C.2       1 <0>        -0.1070
     16 C11        -7.7869    7.3963   -0.4900 C.ar      1 <0>        -0.0753
     17 C12        -8.9540    6.6316   -0.4161 C.ar      1 <0>        -0.0559
     18 C13       -10.1863    7.2492   -0.4545 C.ar      1 <0>        -0.2194
     19 C14       -10.2711    8.6285   -0.5770 C.ar      1 <0>         0.0856
     20 C15        -9.1117    9.3969   -0.6565 C.ar      1 <0>         0.0348
     21 C16        -7.8727    8.7855   -0.6134 C.ar      1 <0>        -0.1009
     22 O3         -9.1989   10.7488   -0.7761 O.3       1 <0>        -0.2745
     23 O4        -11.4885    9.2318   -0.6201 O.3       1 <0>        -0.1986
     24 C17       -12.6358    8.3843   -0.5337 C.3       1 <0>        -0.0663
     25 H1          2.2730   -0.1263    0.2947 H         1 <0>         0.0793
     26 H2          3.1216    1.4375    0.2416 H         1 <0>         0.1148
     27 H3          2.6012    0.7599    1.8031 H         1 <0>         0.1177
     28 H4          0.1116    0.0966   -0.4052 H         1 <0>         0.2354
     29 H5         -0.4375    3.5626   -0.2099 H         1 <0>         0.1693
     30 H6         -2.6322    4.6631   -0.2960 H         1 <0>         0.1269
     31 H7         -4.5512    0.8411    0.0648 H         1 <0>         0.1604
     32 H8         -2.3514   -0.2497    0.1406 H         1 <0>         0.1365
     33 H9         -4.3280    5.3546   -0.3409 H         1 <0>         0.2097
     34 H10        -5.5672    7.3306   -0.5056 H         1 <0>         0.1153
     35 H11        -8.8909    5.5573   -0.3249 H         1 <0>         0.1629
     36 H12       -11.0876    6.6574   -0.3933 H         1 <0>         0.1432
     37 H13        -6.9732    9.3801   -0.6745 H         1 <0>         0.1439
     38 H14        -9.2321   11.0614   -1.6906 H         1 <0>         0.2233
     39 H15       -12.6294    7.6782   -1.3640 H         1 <0>         0.0679
     40 H16       -12.6133    7.8372    0.4088 H         1 <0>         0.0719
     41 H17       -13.5401    8.9912   -0.5799 H         1 <0>         0.1106
@<TRIPOS>BOND
     1    1    2 1
     2    1   25 1
     3    1   26 1
     4    1   27 1
     5    2    3 2
     6    2    4 am
     7    4    5 1
     8    4   28 1
     9    5   10 ar
    10    5    6 ar
    11    6    7 ar
    12    6   29 1
    13    7    8 ar
    14    7   30 1
    15    8    9 ar
    16    8   11 1
    17    9   10 ar
    18    9   31 1
    19   10   32 1
    20   11   12 2
    21   11   13 am
    22   13   14 1
    23   13   33 1
    24   14   15 2
    25   15   16 1
    26   15   34 1
    27   16   21 ar
    28   16   17 ar
    29   17   18 ar
    30   17   35 1
    31   18   19 ar
    32   18   36 1
    33   19   20 ar
    34   19   23 1
    35   20   21 ar
    36   20   22 1
    37   21   37 1
    38   22   38 1
    39   23   24 1
    40   24   39 1
    41   24   40 1
    42   24   41 1
@<TRIPOS>MOLECULE
ZINC00496110
   37    39     0     0     0
SMALL
USER_CHARGES

@<TRIPOS>ATOM
      1 C1          2.6176   13.6835    1.4940 C.3       1 <0>        -0.1767
      2 C2          2.5580   12.3853    0.7310 C.ar      1 <0>        -0.0933
      3 C3          1.4010   12.0206    0.0556 C.ar      1 <0>        -0.0614
      4 C4          1.3861   10.8169   -0.6355 C.ar      1 <0>        -0.1471
      5 C5          2.5139   10.0232   -0.6313 C.ar      1 <0>        -0.0497
      6 N1          3.6058   10.4002    0.0253 N.ar      1 <0>         0.1344
      7 C6          3.6497   11.5439    0.7007 C.ar      1 <0>        -0.0009
      8 C7          4.7084    9.5896    0.0103 C.2       1 <0>         0.0093
      9 C8          4.5701    8.2255    0.0042 C.2       1 <0>        -0.3330
     10 S1          6.2743    7.6912   -0.0065 S.3       1 <0>         0.1656
     11 C9          7.0373    9.3058   -0.0127 C.2       1 <0>         0.2147
     12 O1          8.2201    9.5950   -0.0220 O.2       1 <0>        -0.3039
     13 N2          5.9597   10.1247    0.0017 N.2       1 <0>        -0.4055
     14 C10         3.3485    7.4199    0.0110 C.2       1 <0>        -0.0883
     15 N3          3.4257    6.1199    0.0033 N.2       1 <0>         0.0353
     16 N4          2.2561    5.3486    0.0098 N.am      1 <0>        -0.3329
     17 C11         2.3360    4.0033    0.0018 C.2       1 <0>         0.3637
     18 O2          3.4234    3.4588   -0.0112 O.2       1 <0>        -0.3039
     19 C12         1.1024    3.1898    0.0087 C.ar      1 <0>        -0.1853
     20 C13         1.1717    1.7910    0.0005 C.ar      1 <0>        -0.0285
     21 C14        -0.0126    1.0758    0.0080 C.ar      1 <0>        -0.1954
     22 C15        -1.2159    1.7585    0.0173 C.ar      1 <0>        -0.0246
     23 N5         -1.2508    3.0773    0.0311 N.ar      1 <0>        -0.1707
     24 C16        -0.1515    3.8023    0.0240 C.ar      1 <0>        -0.0279
     25 H1          2.2913   13.5168    2.5206 H         1 <0>         0.1063
     26 H2          3.6412   14.0580    1.4944 H         1 <0>         0.1076
     27 H3          1.9634   14.4145    1.0189 H         1 <0>         0.0998
     28 H4          0.5308   12.6602    0.0674 H         1 <0>         0.1641
     29 H5          0.5011   10.5052   -1.1703 H         1 <0>         0.1722
     30 H6          2.5094    9.0853   -1.1669 H         1 <0>         0.2107
     31 H7          4.5514   11.8191    1.2276 H         1 <0>         0.2259
     32 H8          2.3828    7.9034    0.0225 H         1 <0>         0.0930
     33 H9          1.3888    5.7829    0.0201 H         1 <0>         0.1989
     34 H10         2.1251    1.2837   -0.0117 H         1 <0>         0.1684
     35 H11         0.0021   -0.0041    0.0020 H         1 <0>         0.1473
     36 H12        -2.1419    1.2027    0.0186 H         1 <0>         0.1640
     37 H13        -0.2208    4.8800    0.0305 H         1 <0>         0.1477
@<TRIPOS>BOND
     1    1    2 1
     2    1   25 1
     3    1   26 1
     4    1   27 1
     5    2    7 ar
     6    2    3 ar
     7    3    4 ar
     8    3   28 1
     9    4    5 ar
    10    4   29 1
    11    5    6 ar
    12    5   30 1
    13    6    7 ar
    14    6    8 1
    15    7   31 1
    16    8   13 1
    17    8    9 2
    18    9   10 1
    19    9   14 1
    20   10   11 1
    21   11   12 2
    22   11   13 1
    23   14   15 2
    24   14   32 1
    25   15   16 1
    26   16   17 am
    27   16   33 1
    28   17   18 2
    29   17   19 1
    30   19   24 ar
    31   19   20 ar
    32   20   21 ar
    33   20   34 1
    34   21   22 ar
    35   21   35 1
    36   22   23 ar
    37   22   36 1
    38   23   24 ar
    39   24   37 1
@<TRIPOS>MOLECULE
ZINC00496370
   37    39     0     0     0
SMALL
USER_CHARGES

@<TRIPOS>ATOM
      1 C1          2.9084   -5.6363   -0.0916 C.3       1 <0>        -0.1887
      2 C2          1.7366   -4.6890   -0.0669 C.ar      1 <0>         0.0024
      3 C3          0.5795   -5.0111    0.6293 C.ar      1 <0>        -0.1586
      4 C4         -0.4750   -4.1227    0.6317 C.ar      1 <0>         0.0108
      5 N1         -0.3914   -2.9693   -0.0230 N.ar      1 <0>         0.1214
      6 C5          0.7000   -2.6345   -0.7029 C.ar      1 <0>        -0.0341
      7 C6          1.7915   -3.4763   -0.7404 C.ar      1 <0>        -0.1588
      8 C7         -1.4558   -2.1092   -0.0010 C.2       1 <0>         0.0111
      9 C8         -1.2551   -0.7529    0.0100 C.2       1 <0>        -0.3358
     10 S1         -2.9331   -0.1412    0.0287 S.3       1 <0>         0.1641
     11 C9         -3.7691   -1.7192    0.0286 C.2       1 <0>         0.2150
     12 O1         -4.9640   -1.9540    0.0383 O.2       1 <0>        -0.3043
     13 N2         -2.7302   -2.5866    0.0146 N.2       1 <0>        -0.4062
     14 C10         0.0021   -0.0041    0.0020 C.2       1 <0>        -0.0872
     15 N3         -0.0156    1.2981    0.0092 N.2       1 <0>         0.0345
     16 N4          1.1881    2.0151    0.0015 N.am      1 <0>        -0.3330
     17 C11         1.1698    3.3627    0.0089 C.2       1 <0>         0.3636
     18 O2          0.1084    3.9564    0.0223 O.2       1 <0>        -0.3040
     19 C12         2.4394    4.1189    0.0009 C.ar      1 <0>        -0.1850
     20 C13         2.4341    5.5194    0.0026 C.ar      1 <0>        -0.0286
     21 C14         3.6498    6.1796   -0.0010 C.ar      1 <0>        -0.1954
     22 C15         4.8207    5.4426   -0.0152 C.ar      1 <0>        -0.0247
     23 N5          4.7952    4.1235   -0.0216 N.ar      1 <0>        -0.1709
     24 C16         3.6639    3.4496   -0.0144 C.ar      1 <0>        -0.0280
     25 H1          2.8096   -6.3144   -0.9392 H         1 <0>         0.1134
     26 H2          3.8334   -5.0677   -0.1871 H         1 <0>         0.1005
     27 H3          2.9297   -6.2120    0.8337 H         1 <0>         0.1030
     28 H4          0.5063   -5.9469    1.1633 H         1 <0>         0.1763
     29 H5         -1.3784   -4.3669    1.1709 H         1 <0>         0.2262
     30 H6          0.7340   -1.6915   -1.2284 H         1 <0>         0.2108
     31 H7          2.6777   -3.1971   -1.2910 H         1 <0>         0.1724
     32 H8          0.9446   -0.5313   -0.0098 H         1 <0>         0.0920
     33 H9          2.0346    1.5415   -0.0091 H         1 <0>         0.1986
     34 H10         1.5049    6.0698    0.0101 H         1 <0>         0.1685
     35 H11         3.6846    7.2590    0.0034 H         1 <0>         0.1473
     36 H12         5.7711    5.9555   -0.0215 H         1 <0>         0.1639
     37 H13         3.6838    2.3698   -0.0200 H         1 <0>         0.1477
@<TRIPOS>BOND
     1    1    2 1
     2    1   25 1
     3    1   26 1
     4    1   27 1
     5    2    7 ar
     6    2    3 ar
     7    3    4 ar
     8    3   28 1
     9    4    5 ar
    10    4   29 1
    11    5    6 ar
    12    5    8 1
    13    6    7 ar
    14    6   30 1
    15    7   31 1
    16    8   13 1
    17    8    9 2
    18    9   10 1
    19    9   14 1
    20   10   11 1
    21   11   12 2
    22   11   13 1
    23   14   15 2
    24   14   32 1
    25   15   16 1
    26   16   17 am
    27   16   33 1
    28   17   18 2
    29   17   19 1
    30   19   24 ar
    31   19   20 ar
    32   20   21 ar
    33   20   34 1
    34   21   22 ar
    35   21   35 1
    36   22   23 ar
    37   22   36 1
    38   23   24 ar
    39   24   37 1
@<TRIPOS>MOLECULE
ZINC00497633
   47    49     0     0     0
SMALL
USER_CHARGES

@<TRIPOS>ATOM
      1 C1          3.2659    3.9876   -1.8490 C.3       1 <0>        -0.2104
      2 C2          2.8923    5.4510   -1.6047 C.3       1 <0>        -0.0578
      3 C3          1.9167    5.5470   -0.4247 C.3       1 <0>        -0.1324
      4 C4          0.6515    4.8046   -0.7627 C.2       1 <0>         0.1128
      5 C5          0.2195    4.7040   -2.0391 C.2       1 <0>        -0.3725
      6 C6          0.9287    5.2723   -3.1013 C.2       1 <0>         0.2815
      7 O1          0.5062    5.1609   -4.2355 O.2       1 <0>        -0.3188
      8 C7          2.2118    6.0222   -2.8527 C.3       1 <0>        -0.1949
      9 N1         -0.0739    4.2285    0.2369 N.pl3     1 <0>        -0.2935
     10 C8         -1.1908    3.4434   -0.0720 C.ar      1 <0>        -0.0586
     11 C9         -2.4637    3.9388    0.1378 C.ar      1 <0>        -0.0203
     12 C10        -3.5770    3.1483   -0.1660 C.ar      1 <0>        -0.2074
     13 C11        -3.3980    1.8621   -0.6867 C.ar      1 <0>        -0.0437
     14 C12        -2.1282    1.3753   -0.9003 C.ar      1 <0>        -0.2233
     15 C13        -1.0195    2.1591   -0.5986 C.ar      1 <0>         0.1519
     16 N2          0.2619    1.6625   -0.8157 N.pl3     1 <0>        -0.3977
     17 C14        -4.9367    3.6698    0.0617 C.2       1 <0>         0.3187
     18 O2         -5.1178    4.5662    0.8632 O.2       1 <0>        -0.2966
     19 C15        -6.0799    3.1033   -0.6841 C.ar      1 <0>        -0.1471
     20 C16        -5.8697    2.4517   -1.9013 C.ar      1 <0>        -0.0998
     21 C17        -6.9407    1.9210   -2.5897 C.ar      1 <0>        -0.1424
     22 C18        -8.2224    2.0424   -2.0821 C.ar      1 <0>        -0.1034
     23 C19        -8.4384    2.6914   -0.8791 C.ar      1 <0>        -0.1419
     24 C20        -7.3760    3.2221   -0.1777 C.ar      1 <0>        -0.0716
     25 C21         4.1549    6.2575   -1.2947 C.3       1 <0>        -0.2026
     26 H1          3.9493    3.9235   -2.6957 H         1 <0>         0.0853
     27 H2          3.7498    3.5829   -0.9601 H         1 <0>         0.0696
     28 H3          2.3648    3.4137   -2.0652 H         1 <0>         0.0854
     29 H4          1.6825    6.5931   -0.2272 H         1 <0>         0.1102
     30 H5          2.3730    5.1034    0.4602 H         1 <0>         0.0901
     31 H6         -0.6970    4.1706   -2.2439 H         1 <0>         0.1604
     32 H7          2.8199    5.9203   -3.6400 H         1 <0>         0.1049
     33 H8          1.9924    7.0785   -2.6970 H         1 <0>         0.1069
     34 H9          0.1838    4.3625    1.1624 H         1 <0>         0.2350
     35 H10        -2.5985    4.9319    0.5402 H         1 <0>         0.1577
     36 H11        -4.2568    1.2508   -0.9217 H         1 <0>         0.1470
     37 H12        -1.9926    0.3823   -1.3026 H         1 <0>         0.1380
     38 H13         0.3816    0.7704   -1.1772 H         1 <0>         0.2247
     39 H14         1.0356    2.2100   -0.6093 H         1 <0>         0.2286
     40 H15        -4.8705    2.3602   -2.3008 H         1 <0>         0.1445
     41 H16        -6.7792    1.4133   -3.5292 H         1 <0>         0.1333
     42 H17        -9.0579    1.6290   -2.6275 H         1 <0>         0.1310
     43 H18        -9.4413    2.7829   -0.4889 H         1 <0>         0.1343
     44 H19        -7.5460    3.7287    0.7609 H         1 <0>         0.1494
     45 H20         3.8864    7.2988   -1.1166 H         1 <0>         0.0768
     46 H21         4.6377    5.8497   -0.4066 H         1 <0>         0.0748
     47 H22         4.8403    6.1986   -2.1402 H         1 <0>         0.0838
@<TRIPOS>BOND
     1    1    2 1
     2    1   26 1
     3    1   27 1
     4    1   28 1
     5    2    8 1
     6    2    3 1
     7    2   25 1
     8    3    4 1
     9    3   29 1
    10    3   30 1
    11    4    5 2
    12    4    9 1
    13    5    6 1
    14    5   31 1
    15    6    7 2
    16    6    8 1
    17    8   32 1
    18    8   33 1
    19    9   10 1
    20    9   34 1
    21   10   15 ar
    22   10   11 ar
    23   11   12 ar
    24   11   35 1
    25   12   13 ar
    26   12   17 1
    27   13   14 ar
    28   13   36 1
    29   14   15 ar
    30   14   37 1
    31   15   16 1
    32   16   38 1
    33   16   39 1
    34   17   18 2
    35   17   19 1
    36   19   24 ar
    37   19   20 ar
    38   20   21 ar
    39   20   40 1
    40   21   22 ar
    41   21   41 1
    42   22   23 ar
    43   22   42 1
    44   23   24 ar
    45   23   43 1
    46   24   44 1
    47   25   45 1
    48   25   46 1
    49   25   47 1
@<TRIPOS>MOLECULE
ZINC00499027
   44    46     0     0     0
SMALL
USER_CHARGES

@<TRIPOS>ATOM
      1 C1          0.6492   -8.4094   -1.7965 C.2       1 <0>        -0.2331
      2 C2          0.9305   -7.0830   -2.1591 C.2       1 <0>        -0.1161
      3 C3          0.4733   -6.2929   -1.1433 C.2       1 <0>        -0.1314
      4 O1         -0.0585   -7.0950   -0.1977 O.3       1 <0>        -0.0569
      5 C4          0.0404   -8.3716   -0.5906 C.2       1 <0>        -0.0662
      6 C5          0.5522   -4.8299   -1.0873 C.2       1 <0>         0.3958
      7 O2          1.0623   -4.2125   -2.0037 O.2       1 <0>        -0.3371
      8 N1          0.0599   -4.1689   -0.0209 N.am      1 <0>        -0.3211
      9 C6          0.0347   -2.7708   -0.0156 C.ar      1 <0>         0.1171
     10 C7          0.2110   -2.0760    1.1741 C.ar      1 <0>        -0.1855
     11 C8          0.1860   -0.6952    1.1758 C.ar      1 <0>        -0.0077
     12 C9         -0.0138   -0.0043   -0.0054 C.ar      1 <0>        -0.7781
     13 C10        -0.1952   -0.6931   -1.1907 C.ar      1 <0>        -0.0131
     14 C11        -0.1662   -2.0738   -1.2001 C.ar      1 <0>        -0.1544
     15 S1         -0.0444    1.7574    0.0011 S.o2      1 <0>         2.7630
     16 O3         -0.7905    2.1549   -1.1410 O.2       1 <0>        -0.9156
     17 O4         -0.4002    2.1526    1.3189 O.2       1 <0>        -0.9212
     18 N2          1.5093    2.2750   -0.2449 N.pl3     1 <0>        -0.8776
     19 C12         2.1818    1.9957   -1.5161 C.3       1 <0>         0.0441
     20 C13         3.0158    0.7200   -1.3824 C.3       1 <0>        -0.1840
     21 C14         3.7181    0.4283   -2.7100 C.3       1 <0>        -0.1556
     22 C15         4.6330    1.6002   -3.0712 C.3       1 <0>        -0.1620
     23 C16         3.7990    2.8759   -3.2050 C.3       1 <0>        -0.1575
     24 C17         3.0967    3.1676   -1.8774 C.3       1 <0>        -0.1618
     25 H1          0.8766   -9.2940   -2.3729 H         1 <0>         0.1647
     26 H2          1.4143   -6.7513   -3.0659 H         1 <0>         0.1774
     27 H3         -0.3049   -9.2298   -0.0333 H         1 <0>         0.2038
     28 H4         -0.2769   -4.6629    0.7429 H         1 <0>         0.2461
     29 H5          0.3678   -2.6150    2.0968 H         1 <0>         0.1375
     30 H6          0.3230   -0.1543    2.1005 H         1 <0>         0.1524
     31 H7         -0.3558   -0.1506   -2.1106 H         1 <0>         0.1539
     32 H8         -0.3039   -2.6111   -2.1268 H         1 <0>         0.1656
     33 H9          1.9741    2.7632    0.4526 H         1 <0>         0.2432
     34 H10         1.4362    1.8618   -2.2999 H         1 <0>         0.1120
     35 H11         3.7614    0.8539   -0.5986 H         1 <0>         0.0877
     36 H12         2.3640   -0.1149   -1.1250 H         1 <0>         0.0909
     37 H13         2.9725    0.2944   -3.4937 H         1 <0>         0.0840
     38 H14         4.3123   -0.4805   -2.6147 H         1 <0>         0.0872
     39 H15         5.1334    1.3924   -4.0170 H         1 <0>         0.0822
     40 H16         5.3786    1.7341   -2.2875 H         1 <0>         0.0818
     41 H17         3.0534    2.7420   -3.9887 H         1 <0>         0.0856
     42 H18         4.4508    3.7108   -3.4624 H         1 <0>         0.0839
     43 H19         2.5025    4.0765   -1.9727 H         1 <0>         0.0920
     44 H20         3.8423    3.3015   -1.0937 H         1 <0>         0.0839
@<TRIPOS>BOND
     1    1    5 2
     2    1    2 1
     3    1   25 1
     4    2    3 2
     5    2   26 1
     6    3    4 1
     7    3    6 1
     8    4    5 1
     9    5   27 1
    10    6    7 2
    11    6    8 am
    12    8    9 1
    13    8   28 1
    14    9   14 ar
    15    9   10 ar
    16   10   11 ar
    17   10   29 1
    18   11   12 ar
    19   11   30 1
    20   12   13 ar
    21   12   15 1
    22   13   14 ar
    23   13   31 1
    24   14   32 1
    25   15   16 2
    26   15   17 2
    27   15   18 1
    28   18   19 1
    29   18   33 1
    30   19   24 1
    31   19   20 1
    32   19   34 1
    33   20   21 1
    34   20   35 1
    35   20   36 1
    36   21   22 1
    37   21   37 1
    38   21   38 1
    39   22   23 1
    40   22   39 1
    41   22   40 1
    42   23   24 1
    43   23   41 1
    44   23   42 1
    45   24   43 1
    46   24   44 1
@<TRIPOS>MOLECULE
ZINC00501669
   39    42     0     0     0
SMALL
USER_CHARGES

@<TRIPOS>ATOM
      1 C1          0.1658   11.2354   -0.2557 C.3       1 <0>        -0.1698
      2 C2         -0.7588   10.0476   -0.1827 C.ar      1 <0>        -0.1077
      3 C3         -2.1319   10.2463   -0.1195 C.ar      1 <0>        -0.0809
      4 C4         -2.9938    9.1748   -0.0528 C.ar      1 <0>        -0.1510
      5 C5         -2.4882    7.8768   -0.0478 C.ar      1 <0>         0.0507
      6 C6         -1.0955    7.6807   -0.1115 C.ar      1 <0>        -0.1162
      7 C7         -0.2401    8.7846   -0.1784 C.ar      1 <0>        -0.0657
      8 C8         -0.8789    6.2347   -0.0886 C.2       1 <0>         0.0378
      9 C9         -2.1275    5.6445   -0.0136 C.2       1 <0>        -0.1475
     10 N1         -3.0903    6.6403    0.0105 N.pl3     1 <0>        -0.1593
     11 H1         -4.0471    6.4887    0.0612 H         1 <0>         0.2607
     12 C10        -2.2070    4.2291    0.0171 C.2       1 <0>         0.3631
     13 O1         -3.2906    3.6759    0.0773 O.2       1 <0>        -0.3583
     14 N2         -1.0733    3.5014   -0.0164 N.am      1 <0>        -0.2510
     15 C11         0.1307    4.0950   -0.0888 C.2       1 <0>         0.4086
     16 O2          1.1330    3.4070   -0.1224 O.2       1 <0>        -0.3500
     17 N3          0.2497    5.4359   -0.1253 N.am      1 <0>        -0.2829
     18 H2          1.1560    5.8550   -0.1791 H         1 <0>         0.2747
     19 N4         -1.1509    2.1030    0.0189 N.2       1 <0>         0.0156
     20 C12        -1.6886    1.4575   -0.9708 C.2       1 <0>        -0.0214
     21 C13        -1.8736   -0.0018   -0.8849 C.ar      1 <0>        -0.0953
     22 C14        -2.4623   -0.6987   -1.9429 C.ar      1 <0>        -0.0817
     23 C15        -2.6272   -2.0650   -1.8585 C.ar      1 <0>        -0.1496
     24 C16        -2.2227   -2.7484   -0.7242 C.ar      1 <0>        -0.0914
     25 C17        -1.6439   -2.0700    0.3314 C.ar      1 <0>        -0.1670
     26 C18        -1.4653   -0.6978    0.2612 C.ar      1 <0>         0.1267
     27 O3         -0.8966   -0.0303    1.2979 O.3       1 <0>        -0.2673
     28 H3          0.4394   11.5454    0.7529 H         1 <0>         0.0867
     29 H4          1.0648   10.9625   -0.8083 H         1 <0>         0.0817
     30 H5         -0.3380   12.0573   -0.7643 H         1 <0>         0.0822
     31 H6         -2.5274   11.2512   -0.1231 H         1 <0>         0.1373
     32 H7         -4.0599    9.3403   -0.0047 H         1 <0>         0.1352
     33 H8          0.8289    8.6385   -0.2278 H         1 <0>         0.1318
     34 H9         -2.0044    1.9907   -1.8553 H         1 <0>         0.1297
     35 H10        -2.7836   -0.1688   -2.8274 H         1 <0>         0.1356
     36 H11        -3.0783   -2.6039   -2.6786 H         1 <0>         0.1354
     37 H12        -2.3600   -3.8180   -0.6642 H         1 <0>         0.1346
     38 H13        -1.3306   -2.6101    1.2127 H         1 <0>         0.1456
     39 H14        -1.5298    0.2857    1.9569 H         1 <0>         0.2404
@<TRIPOS>BOND
     1    1    2 1
     2    1   28 1
     3    1   29 1
     4    1   30 1
     5    2    7 ar
     6    2    3 ar
     7    3    4 ar
     8    3   31 1
     9    4    5 ar
    10    4   32 1
    11    5   10 1
    12    5    6 ar
    13    6    7 ar
    14    6    8 1
    15    7   33 1
    16    8   17 1
    17    8    9 2
    18    9   10 1
    19    9   12 1
    20   10   11 1
    21   12   13 2
    22   12   14 am
    23   14   15 am
    24   14   19 1
    25   15   16 2
    26   15   17 am
    27   17   18 1
    28   19   20 2
    29   20   21 1
    30   20   34 1
    31   21   26 ar
    32   21   22 ar
    33   22   23 ar
    34   22   35 1
    35   23   24 ar
    36   23   36 1
    37   24   25 ar
    38   24   37 1
    39   25   26 ar
    40   25   38 1
    41   26   27 1
    42   27   39 1
@<TRIPOS>MOLECULE
ZINC00505204
   40    41     0     0     0
SMALL
USER_CHARGES

@<TRIPOS>ATOM
      1 C1          2.4542    0.9925    0.7841 C.3       1 <0>        -0.1799
      2 C2          1.1550    1.7327    0.5963 C.ar      1 <0>        -0.0231
      3 C3         -0.0392    1.0385    0.5821 C.ar      1 <0>        -0.1509
      4 C4         -1.2343    1.7196    0.4030 C.ar      1 <0>         0.1030
      5 C5         -1.2287    3.0984    0.2504 C.ar      1 <0>        -0.2266
      6 C6         -0.0324    3.7891    0.2651 C.ar      1 <0>        -0.0211
      7 C7          1.1592    3.1073    0.4377 C.ar      1 <0>        -0.0904
      8 Cl1         2.6612    3.9775    0.4559 Cl        1 <0>        -0.0301
      9 C8         -0.0252    5.2863    0.0936 C.3       1 <0>        -0.1808
     10 O1         -2.4099    1.0376    0.3832 O.3       1 <0>        -0.1767
     11 C9         -3.6013    1.8037    0.1946 C.3       1 <0>        -0.0363
     12 C10        -4.7957    0.8848    0.2006 C.2       1 <0>         0.2988
     13 O2         -4.6418   -0.3087    0.3515 O.2       1 <0>        -0.3127
     14 N1         -6.0349    1.3892    0.0382 N.am      1 <0>        -0.3289
     15 C11        -7.1288    0.5309   -0.0666 C.ar      1 <0>         0.0878
     16 C12        -6.9837   -0.7060   -0.6868 C.ar      1 <0>        -0.1385
     17 C13        -8.0605   -1.5578   -0.7876 C.ar      1 <0>        -0.0851
     18 C14        -9.3030   -1.1744   -0.2755 C.ar      1 <0>        -0.1476
     19 C15        -9.4466    0.0710    0.3421 C.ar      1 <0>        -0.0463
     20 C16        -8.3644    0.9158    0.4443 C.ar      1 <0>        -0.1741
     21 C17       -10.4610   -2.0829   -0.3864 C.2       1 <0>         0.3517
     22 O3        -11.5413   -1.7481    0.0599 O.2       1 <0>        -0.3715
     23 N2        -10.3208   -3.2836   -0.9824 N.am      1 <0>        -0.4281
     24 H1          2.8477    0.6967   -0.1885 H         1 <0>         0.0949
     25 H2          3.1729    1.6412    1.2848 H         1 <0>         0.0977
     26 H3          2.2817    0.1042    1.3917 H         1 <0>         0.0870
     27 H4         -0.0420   -0.0344    0.7060 H         1 <0>         0.1555
     28 H5         -2.1585    3.6309    0.1153 H         1 <0>         0.1342
     29 H6          0.0570    5.5303   -0.9655 H         1 <0>         0.0936
     30 H7         -0.9510    5.7021    0.4915 H         1 <0>         0.0806
     31 H8          0.8235    5.7095    0.6309 H         1 <0>         0.0993
     32 H9         -3.6977    2.5301    1.0015 H         1 <0>         0.0966
     33 H10        -3.5498    2.3264   -0.7606 H         1 <0>         0.0971
     34 H11        -6.1658    2.3493   -0.0058 H         1 <0>         0.2334
     35 H12        -6.0242   -1.0000   -1.0859 H         1 <0>         0.1633
     36 H13        -7.9462   -2.5195   -1.2655 H         1 <0>         0.1301
     37 H14       -10.4054    0.3701    0.7392 H         1 <0>         0.1606
     38 H15        -8.4746    1.8782    0.9218 H         1 <0>         0.1356
     39 H16        -9.4590   -3.5506   -1.3384 H         1 <0>         0.2163
     40 H17       -11.0818   -3.8806   -1.0552 H         1 <0>         0.2315
@<TRIPOS>BOND
     1    1    2 1
     2    1   24 1
     3    1   25 1
     4    1   26 1
     5    2    7 ar
     6    2    3 ar
     7    3    4 ar
     8    3   27 1
     9    4    5 ar
    10    4   10 1
    11    5    6 ar
    12    5   28 1
    13    6    7 ar
    14    6    9 1
    15    7    8 1
    16    9   29 1
    17    9   30 1
    18    9   31 1
    19   10   11 1
    20   11   12 1
    21   11   32 1
    22   11   33 1
    23   12   13 2
    24   12   14 am
    25   14   15 1
    26   14   34 1
    27   15   20 ar
    28   15   16 ar
    29   16   17 ar
    30   16   35 1
    31   17   18 ar
    32   17   36 1
    33   18   19 ar
    34   18   21 1
    35   19   20 ar
    36   19   37 1
    37   20   38 1
    38   21   22 2
    39   21   23 am
    40   23   39 1
    41   23   40 1
@<TRIPOS>MOLECULE
ZINC00508861
   41    42     0     0     0
SMALL
USER_CHARGES

@<TRIPOS>ATOM
      1 C1         -2.5593    3.8654    0.0089 C.3       1 <0>        -0.1750
      2 C2         -1.2421    3.1334    0.0039 C.ar      1 <0>        -0.0424
      3 C3         -1.2201    1.7507   -0.0064 C.ar      1 <0>        -0.1579
      4 C4         -0.0133    1.0763   -0.0058 C.ar      1 <0>        -0.0903
      5 C5          1.1742    1.7826   -0.0064 C.ar      1 <0>        -0.0961
      6 C6          1.1548    3.1696   -0.0018 C.ar      1 <0>         0.0918
      7 C7         -0.0577    3.8441    0.0033 C.ar      1 <0>        -0.2208
      8 O1          2.3214    3.8666   -0.0020 O.3       1 <0>        -0.1784
      9 C8          2.2254    5.2923    0.0028 C.3       1 <0>        -0.0340
     10 C9          3.6092    5.8891    0.0019 C.2       1 <0>         0.3000
     11 O2          4.5820    5.1647   -0.0024 O.2       1 <0>        -0.3103
     12 N1          3.7658    7.2277    0.0059 N.am      1 <0>        -0.3337
     13 C10         5.0470    7.7819    0.1028 C.ar      1 <0>         0.1195
     14 C11         5.2413    8.9677    0.7989 C.ar      1 <0>        -0.1874
     15 C12         6.5083    9.5086    0.8983 C.ar      1 <0>        -0.0088
     16 C13         7.5804    8.8775    0.2948 C.ar      1 <0>        -0.7800
     17 C14         7.3892    7.6998   -0.4043 C.ar      1 <0>        -0.0089
     18 C15         6.1259    7.1503   -0.5018 C.ar      1 <0>        -0.1531
     19 S1          9.1938    9.5750    0.4173 S.o2      1 <0>         2.7631
     20 O3          9.1975   10.3877    1.5830 O.2       1 <0>        -0.9186
     21 O4         10.1131    8.5078    0.2297 O.2       1 <0>        -0.9150
     22 N2          9.3849   10.5964   -0.8722 N.pl3     1 <0>        -0.9318
     23 C16         2.4893    1.0468   -0.0124 C.3       1 <0>        -0.1687
     24 H1         -2.8792    4.0449   -1.0175 H         1 <0>         0.0872
     25 H2         -3.3081    3.2625    0.5227 H         1 <0>         0.0850
     26 H3         -2.4435    4.8184    0.5252 H         1 <0>         0.0786
     27 H4         -2.1472    1.1968   -0.0108 H         1 <0>         0.1322
     28 H5          0.0012   -0.0036   -0.0093 H         1 <0>         0.1372
     29 H6         -0.0754    4.9240    0.0064 H         1 <0>         0.1268
     30 H7          1.6865    5.6232   -0.8850 H         1 <0>         0.0949
     31 H8          1.6901    5.6174    0.8950 H         1 <0>         0.0978
     32 H9          2.9904    7.8069   -0.0583 H         1 <0>         0.2345
     33 H10         4.4035    9.4639    1.2661 H         1 <0>         0.1369
     34 H11         6.6610   10.4279    1.4442 H         1 <0>         0.1551
     35 H12         8.2287    7.2091   -0.8743 H         1 <0>         0.1588
     36 H13         5.9773    6.2301   -1.0474 H         1 <0>         0.1740
     37 H14         8.6657   10.7077   -1.5134 H         1 <0>         0.2288
     38 H15        10.2161   11.0832   -0.9863 H         1 <0>         0.2434
     39 H16         2.8037    0.8730   -1.0415 H         1 <0>         0.0872
     40 H17         3.2423    1.6442    0.5016 H         1 <0>         0.1015
     41 H18         2.3731    0.0909    0.4983 H         1 <0>         0.0768
@<TRIPOS>BOND
     1    1    2 1
     2    1   24 1
     3    1   25 1
     4    1   26 1
     5    2    7 ar
     6    2    3 ar
     7    3    4 ar
     8    3   27 1
     9    4    5 ar
    10    4   28 1
    11    5    6 ar
    12    5   23 1
    13    6    7 ar
    14    6    8 1
    15    7   29 1
    16    8    9 1
    17    9   10 1
    18    9   30 1
    19    9   31 1
    20   10   11 2
    21   10   12 am
    22   12   13 1
    23   12   32 1
    24   13   18 ar
    25   13   14 ar
    26   14   15 ar
    27   14   33 1
    28   15   16 ar
    29   15   34 1
    30   16   17 ar
    31   16   19 1
    32   17   18 ar
    33   17   35 1
    34   18   36 1
    35   19   20 2
    36   19   21 2
    37   19   22 1
    38   22   37 1
    39   22   38 1
    40   23   39 1
    41   23   40 1
    42   23   41 1
@<TRIPOS>MOLECULE
ZINC00508932
   41    43     0     0     0
SMALL
USER_CHARGES

@<TRIPOS>ATOM
      1 C1          0.0037    0.0421    0.2015 C.ar      1 <0>        -0.0920
      2 C2          1.1041   -0.6630    0.6383 C.ar      1 <0>        -0.1522
      3 C3          2.0586   -0.0421    1.4338 C.ar      1 <0>         0.0815
      4 C4          1.9084    1.2911    1.7934 C.ar      1 <0>        -0.1527
      5 C5          0.8108    2.0038    1.3621 C.ar      1 <0>        -0.1297
      6 C6         -0.1519    1.3835    0.5612 C.ar      1 <0>        -0.1051
      7 C7         -1.3309    2.1400    0.1023 C.2       1 <0>        -0.1192
      8 N1         -1.3426    3.4355    0.1831 N.2       1 <0>         0.0209
      9 N2         -0.1370    4.1492    0.1686 N.am      1 <0>        -0.3352
     10 C8         -0.1387    5.4794    0.3854 C.2       1 <0>         0.3589
     11 O1         -1.1869    6.0603    0.5937 O.2       1 <0>        -0.3212
     12 C9          1.1309    6.2310    0.3701 C.ar      1 <0>        -0.1502
     13 C10         2.3368    5.5642    0.1365 C.ar      1 <0>        -0.0913
     14 C11         3.5190    6.2695    0.1172 C.ar      1 <0>        -0.1719
     15 C12         3.5154    7.6426    0.3417 C.ar      1 <0>         0.0877
     16 C13         2.3173    8.3087    0.5797 C.ar      1 <0>        -0.1397
     17 C14         1.1309    7.6106    0.5948 C.ar      1 <0>        -0.0460
     18 N3          4.7154    8.3529    0.3276 N.am      1 <0>        -0.3246
     19 C15         4.7491    9.6093   -0.1590 C.2       1 <0>         0.3344
     20 O2          3.7228   10.1507   -0.5118 O.2       1 <0>        -0.3492
     21 C16         6.0621   10.3414   -0.2647 C.3       1 <0>        -0.2224
     22 C17         6.2825   11.5348    0.6670 C.3       1 <0>        -0.1928
     23 C18         6.0341   11.7648   -0.8251 C.3       1 <0>        -0.1727
     24 O3          3.1420   -0.7410    1.8617 O.3       1 <0>        -0.2920
     25 H1         -0.7379   -0.4415   -0.4170 H         1 <0>         0.1388
     26 H2          1.2248   -1.6999    0.3614 H         1 <0>         0.1446
     27 H3          2.6528    1.7697    2.4124 H         1 <0>         0.1439
     28 H4          0.6944    3.0402    1.6428 H         1 <0>         0.1532
     29 H5         -2.1850    1.6165   -0.3013 H         1 <0>         0.1843
     30 H6          0.6988    3.6860    0.0025 H         1 <0>         0.2249
     31 H7          2.3409    4.4975   -0.0326 H         1 <0>         0.1268
     32 H8          4.4507    5.7556   -0.0680 H         1 <0>         0.1338
     33 H9          2.3181    9.3747    0.7533 H         1 <0>         0.1720
     34 H10         0.2013    8.1283    0.7796 H         1 <0>         0.1633
     35 H11         5.5258    7.9427    0.6680 H         1 <0>         0.2357
     36 H12         6.9272    9.7231   -0.5043 H         1 <0>         0.1294
     37 H13         5.4778   11.7904    1.3564 H         1 <0>         0.1239
     38 H14         7.2928   11.7018    1.0407 H         1 <0>         0.1148
     39 H15         6.8810   12.0831   -1.4331 H         1 <0>         0.1150
     40 H16         5.0661   12.1716   -1.1176 H         1 <0>         0.1399
     41 H17         3.0118   -1.1885    2.7090 H         1 <0>         0.2322
@<TRIPOS>BOND
     1    1    6 ar
     2    1    2 ar
     3    1   25 1
     4    2    3 ar
     5    2   26 1
     6    3    4 ar
     7    3   24 1
     8    4    5 ar
     9    4   27 1
    10    5    6 ar
    11    5   28 1
    12    6    7 1
    13    7    8 2
    14    7   29 1
    15    8    9 1
    16    9   10 am
    17    9   30 1
    18   10   11 2
    19   10   12 1
    20   12   17 ar
    21   12   13 ar
    22   13   14 ar
    23   13   31 1
    24   14   15 ar
    25   14   32 1
    26   15   16 ar
    27   15   18 1
    28   16   17 ar
    29   16   33 1
    30   17   34 1
    31   18   19 am
    32   18   35 1
    33   19   20 2
    34   19   21 1
    35   21   23 1
    36   21   22 1
    37   21   36 1
    38   22   23 1
    39   22   37 1
    40   22   38 1
    41   23   39 1
    42   23   40 1
    43   24   41 1
@<TRIPOS>MOLECULE
ZINC00508996
   41    43     0     0     0
SMALL
USER_CHARGES

@<TRIPOS>ATOM
      1 C1         -0.9079    2.1084   -1.7341 C.ar      1 <0>        -0.1123
      2 C2         -1.0056    3.4125   -1.2942 C.ar      1 <0>        -0.1556
      3 C3          0.0129    3.9630   -0.5125 C.ar      1 <0>        -0.0794
      4 C4          1.1236    3.1869   -0.1753 C.ar      1 <0>        -0.1335
      5 C5          1.2078    1.8781   -0.6178 C.ar      1 <0>         0.0752
      6 C6          0.1900    1.3399   -1.3944 C.ar      1 <0>        -0.1455
      7 O1          2.2873    1.1193   -0.2923 O.3       1 <0>        -0.2904
      8 C7         -0.0844    5.3586   -0.0456 C.2       1 <0>        -0.1210
      9 N1         -1.2190    5.9855   -0.1063 N.2       1 <0>         0.0239
     10 N2         -2.4199    5.2642   -0.0864 N.am      1 <0>        -0.3353
     11 C8         -3.5917    5.9008   -0.2812 C.2       1 <0>         0.3590
     12 O2         -3.6067    7.1015   -0.4741 O.2       1 <0>        -0.3207
     13 C9         -4.8564    5.1411   -0.2602 C.ar      1 <0>        -0.1498
     14 C10        -4.8405    3.7603   -0.0443 C.ar      1 <0>        -0.0915
     15 C11        -6.0228    3.0555   -0.0197 C.ar      1 <0>        -0.1724
     16 C12        -7.2316    3.7142   -0.2213 C.ar      1 <0>         0.0879
     17 C13        -7.2507    5.0879   -0.4418 C.ar      1 <0>        -0.1395
     18 C14        -6.0726    5.7998   -0.4620 C.ar      1 <0>        -0.0458
     19 N3         -8.4269    2.9961   -0.2020 N.am      1 <0>        -0.3247
     20 C15        -9.5423    3.5577    0.3050 C.2       1 <0>         0.3344
     21 O3         -9.5265    4.7137    0.6713 O.2       1 <0>        -0.3489
     22 C16       -10.8091    2.7491    0.4167 C.3       1 <0>        -0.2225
     23 C17       -11.9752    3.1332   -0.4963 C.3       1 <0>        -0.1927
     24 C18       -12.0411    3.4434    1.0005 C.3       1 <0>        -0.1726
     25 H1         -1.6936    1.6853   -2.3424 H         1 <0>         0.1368
     26 H2         -1.8668    4.0087   -1.5576 H         1 <0>         0.1518
     27 H3          1.9147    3.6066    0.4284 H         1 <0>         0.1458
     28 H4          0.2586    0.3183   -1.7381 H         1 <0>         0.1428
     29 H5          3.0128    1.1737   -0.9293 H         1 <0>         0.2311
     30 H6          0.7887    5.8588    0.3468 H         1 <0>         0.1854
     31 H7         -2.4079    4.3065    0.0675 H         1 <0>         0.2259
     32 H8         -3.9022    3.2475    0.1071 H         1 <0>         0.1264
     33 H9         -6.0117    1.9892    0.1516 H         1 <0>         0.1331
     34 H10        -8.1908    5.5961   -0.5976 H         1 <0>         0.1722
     35 H11        -6.0881    6.8660   -0.6332 H         1 <0>         0.1635
     36 H12        -8.4555    2.0925   -0.5534 H         1 <0>         0.2355
     37 H13       -10.6733    1.6914    0.6423 H         1 <0>         0.1294
     38 H14       -11.8261    3.9708   -1.1778 H         1 <0>         0.1240
     39 H15       -12.6068    2.3281   -0.8717 H         1 <0>         0.1149
     40 H16       -12.7162    2.8424    1.6098 H         1 <0>         0.1151
     41 H17       -11.9354    4.4850    1.3041 H         1 <0>         0.1400
@<TRIPOS>BOND
     1    1    6 ar
     2    1    2 ar
     3    1   25 1
     4    2    3 ar
     5    2   26 1
     6    3    4 ar
     7    3    8 1
     8    4    5 ar
     9    4   27 1
    10    5    6 ar
    11    5    7 1
    12    6   28 1
    13    7   29 1
    14    8    9 2
    15    8   30 1
    16    9   10 1
    17   10   11 am
    18   10   31 1
    19   11   12 2
    20   11   13 1
    21   13   18 ar
    22   13   14 ar
    23   14   15 ar
    24   14   32 1
    25   15   16 ar
    26   15   33 1
    27   16   17 ar
    28   16   19 1
    29   17   18 ar
    30   17   34 1
    31   18   35 1
    32   19   20 am
    33   19   36 1
    34   20   21 2
    35   20   22 1
    36   22   24 1
    37   22   23 1
    38   22   37 1
    39   23   24 1
    40   23   38 1
    41   23   39 1
    42   24   40 1
    43   24   41 1
@<TRIPOS>MOLECULE
ZINC00510745
   46    47     0     0     0
SMALL
USER_CHARGES

@<TRIPOS>ATOM
      1 C1          0.2576   -2.6857   -0.6808 C.3       1 <0>        -0.1978
      2 C2          1.1656   -2.1621    0.4338 C.3       1 <0>        -0.0272
      3 C3          2.5909   -2.6722    0.2123 C.3       1 <0>        -0.2035
      4 C4          0.6507   -2.6582    1.7864 C.3       1 <0>        -0.1978
      5 C5          1.1631   -0.6551    0.4173 C.ar      1 <0>        -0.0973
      6 C6         -0.0212    0.0351    0.5984 C.ar      1 <0>        -0.0879
      7 C7         -0.0260    1.4165    0.5842 C.ar      1 <0>        -0.1473
      8 C8          1.1588    2.1111    0.3881 C.ar      1 <0>         0.0874
      9 C9          2.3458    1.4162    0.2072 C.ar      1 <0>        -0.2232
     10 C10         2.3452    0.0348    0.2218 C.ar      1 <0>        -0.0906
     11 O1          1.1567    3.4701    0.3742 O.3       1 <0>        -0.1801
     12 C11         2.4131    4.1186    0.1672 C.3       1 <0>        -0.0349
     13 C12         2.2158    5.6126    0.1830 C.2       1 <0>         0.2986
     14 O2          1.1084    6.0762    0.3546 O.2       1 <0>        -0.3133
     15 N1          3.2701    6.4334    0.0064 N.am      1 <0>        -0.3297
     16 C13         3.0732    7.8105   -0.0891 C.ar      1 <0>         0.0888
     17 C14         1.9196    8.3069   -0.6879 C.ar      1 <0>        -0.1387
     18 C15         1.7198    9.6659   -0.7794 C.ar      1 <0>        -0.0852
     19 C16         2.6823   10.5473   -0.2797 C.ar      1 <0>        -0.1484
     20 C17         3.8424   10.0454    0.3164 C.ar      1 <0>        -0.0464
     21 C18         4.0335    8.6852    0.4095 C.ar      1 <0>        -0.1748
     22 C19         2.4739   12.0050   -0.3807 C.2       1 <0>         0.3518
     23 O3          3.3120   12.7706    0.0549 O.2       1 <0>        -0.3721
     24 N2          1.3545   12.4874   -0.9559 N.am      1 <0>        -0.4283
     25 H1          0.6244   -2.3323   -1.6444 H         1 <0>         0.0786
     26 H2          0.2594   -3.7756   -0.6689 H         1 <0>         0.0750
     27 H3         -0.7579   -2.3223   -0.5230 H         1 <0>         0.0752
     28 H4          3.2378   -2.2991    1.0064 H         1 <0>         0.0762
     29 H5          2.5927   -3.7621    0.2242 H         1 <0>         0.0766
     30 H6          2.9577   -2.3187   -0.7513 H         1 <0>         0.0761
     31 H7         -0.3647   -2.2948    1.9442 H         1 <0>         0.0753
     32 H8          0.6525   -3.7481    1.7983 H         1 <0>         0.0750
     33 H9          1.2976   -2.2851    2.5804 H         1 <0>         0.0789
     34 H10        -0.9433   -0.5061    0.7506 H         1 <0>         0.1379
     35 H11        -0.9520    1.9551    0.7212 H         1 <0>         0.1482
     36 H12         3.2694    1.9547    0.0544 H         1 <0>         0.1266
     37 H13         3.2690   -0.5066    0.0806 H         1 <0>         0.1375
     38 H14         3.1037    3.8349    0.9614 H         1 <0>         0.0953
     39 H15         2.8236    3.8165   -0.7963 H         1 <0>         0.0958
     40 H16         4.1659    6.0662   -0.0543 H         1 <0>         0.2333
     41 H17         1.1780    7.6252   -1.0775 H         1 <0>         0.1636
     42 H18         0.8221   10.0505   -1.2406 H         1 <0>         0.1298
     43 H19         4.5880   10.7239    0.7039 H         1 <0>         0.1602
     44 H20         4.9296    8.2967    0.8703 H         1 <0>         0.1354
     45 H21         0.6859   11.8766   -1.3034 H         1 <0>         0.2163
     46 H22         1.2175   13.4453   -1.0223 H         1 <0>         0.2312
@<TRIPOS>BOND
     1    1    2 1
     2    1   25 1
     3    1   26 1
     4    1   27 1
     5    2    3 1
     6    2    4 1
     7    2    5 1
     8    3   28 1
     9    3   29 1
    10    3   30 1
    11    4   31 1
    12    4   32 1
    13    4   33 1
    14    5   10 ar
    15    5    6 ar
    16    6    7 ar
    17    6   34 1
    18    7    8 ar
    19    7   35 1
    20    8    9 ar
    21    8   11 1
    22    9   10 ar
    23    9   36 1
    24   10   37 1
    25   11   12 1
    26   12   13 1
    27   12   38 1
    28   12   39 1
    29   13   14 2
    30   13   15 am
    31   15   16 1
    32   15   40 1
    33   16   21 ar
    34   16   17 ar
    35   17   18 ar
    36   17   41 1
    37   18   19 ar
    38   18   42 1
    39   19   20 ar
    40   19   22 1
    41   20   21 ar
    42   20   43 1
    43   21   44 1
    44   22   23 2
    45   22   24 am
    46   24   45 1
    47   24   46 1
@<TRIPOS>MOLECULE
ZINC00514219
   41    42     0     0     0
SMALL
USER_CHARGES

@<TRIPOS>ATOM
      1 C1          7.7701    7.1218   -0.4702 C.3       1 <0>        -0.2120
      2 C2          6.3349    7.1498    0.0594 C.3       1 <0>        -0.0184
      3 O1          5.6241    8.2304   -0.5481 O.3       1 <0>        -0.2086
      4 C3          4.3254    8.3968   -0.1839 C.ar      1 <0>         0.1523
      5 C4          3.5757    9.4261   -0.7346 C.ar      1 <0>        -0.1832
      6 C5          2.2556    9.5928   -0.3631 C.ar      1 <0>         0.0115
      7 C6          1.6815    8.7349    0.5568 C.ar      1 <0>        -0.7985
      8 C7          2.4282    7.7118    1.1113 C.ar      1 <0>         0.0143
      9 C8          3.7470    7.5374    0.7388 C.ar      1 <0>        -0.2469
     10 S1         -0.0024    8.9502    1.0286 S.o2      1 <0>         2.7662
     11 O2         -0.3594   10.2770    0.6657 O.2       1 <0>        -0.9160
     12 O3         -0.1159    8.4680    2.3604 O.2       1 <0>        -0.9155
     13 N1         -0.9096    7.9400    0.0805 N.pl3     1 <0>        -0.8136
     14 C9         -0.9372    8.1199   -1.3065 C.ar      1 <0>         0.0366
     15 C10        -0.8079    7.0252   -2.1516 C.ar      1 <0>        -0.1280
     16 C11        -0.8348    7.2030   -3.5204 C.ar      1 <0>        -0.1494
     17 C12        -0.9909    8.4761   -4.0523 C.ar      1 <0>         0.0539
     18 C13        -1.1149    9.5712   -3.2077 C.ar      1 <0>        -0.1082
     19 C14        -1.0934    9.3932   -1.8388 C.ar      1 <0>        -0.1437
     20 N2         -1.0177    8.6564   -5.4419 N.am      1 <0>        -0.3306
     21 C15        -1.7800    9.6285   -5.9808 C.2       1 <0>         0.2992
     22 O4         -2.5164   10.2837   -5.2739 O.2       1 <0>        -0.3498
     23 C16        -1.7219    9.8975   -7.4624 C.3       1 <0>        -0.2384
     24 H1          8.2646    8.0629   -0.2295 H         1 <0>         0.0908
     25 H2          8.3123    6.2975   -0.0068 H         1 <0>         0.0893
     26 H3          7.7558    6.9850   -1.5514 H         1 <0>         0.0891
     27 H4          6.3492    7.2867    1.1407 H         1 <0>         0.0791
     28 H5          5.8404    6.2088   -0.1813 H         1 <0>         0.0764
     29 H6          4.0238   10.0966   -1.4529 H         1 <0>         0.1500
     30 H7          1.6715   10.3937   -0.7918 H         1 <0>         0.1573
     31 H8          1.9788    7.0460    1.8332 H         1 <0>         0.1468
     32 H9          4.3285    6.7354    1.1689 H         1 <0>         0.1405
     33 H10        -1.4218    7.2235    0.4869 H         1 <0>         0.2518
     34 H11        -0.6868    6.0350   -1.7379 H         1 <0>         0.1345
     35 H12        -0.7346    6.3518   -4.1776 H         1 <0>         0.1314
     36 H13        -1.2322   10.5618   -3.6217 H         1 <0>         0.1663
     37 H14        -1.1939   10.2445   -1.1819 H         1 <0>         0.1837
     38 H15        -0.4876    8.0815   -6.0159 H         1 <0>         0.2312
     39 H16        -0.9543   10.6440   -7.6664 H         1 <0>         0.1073
     40 H17        -1.4805    8.9747   -7.9900 H         1 <0>         0.0826
     41 H18        -2.6888   10.2682   -7.8026 H         1 <0>         0.1189
@<TRIPOS>BOND
     1    1    2 1
     2    1   24 1
     3    1   25 1
     4    1   26 1
     5    2    3 1
     6    2   27 1
     7    2   28 1
     8    3    4 1
     9    4    9 ar
    10    4    5 ar
    11    5    6 ar
    12    5   29 1
    13    6    7 ar
    14    6   30 1
    15    7    8 ar
    16    7   10 1
    17    8    9 ar
    18    8   31 1
    19    9   32 1
    20   10   11 2
    21   10   12 2
    22   10   13 1
    23   13   14 1
    24   13   33 1
    25   14   19 ar
    26   14   15 ar
    27   15   16 ar
    28   15   34 1
    29   16   17 ar
    30   16   35 1
    31   17   18 ar
    32   17   20 1
    33   18   19 ar
    34   18   36 1
    35   19   37 1
    36   20   21 am
    37   20   38 1
    38   21   22 2
    39   21   23 1
    40   23   39 1
    41   23   40 1
    42   23   41 1
@<TRIPOS>MOLECULE
ZINC00516369
   43    44     0     0     0
SMALL
USER_CHARGES

@<TRIPOS>ATOM
      1 C1          2.4348    0.4643   -6.4076 C.3       1 <0>        -0.2039
      2 C2          1.0941   -0.2327   -6.1669 C.3       1 <0>        -0.0737
      3 C3          1.2936   -1.7491   -6.2050 C.3       1 <0>        -0.2040
      4 C4          0.5539    0.1693   -4.8188 C.ar      1 <0>        -0.1035
      5 C5         -0.6690    0.8081   -4.7278 C.ar      1 <0>        -0.0885
      6 C6         -1.1664    1.1775   -3.4931 C.ar      1 <0>        -0.1473
      7 C7         -0.4379    0.9071   -2.3438 C.ar      1 <0>         0.0879
      8 C8          0.7915    0.2712   -2.4383 C.ar      1 <0>        -0.2228
      9 C9          1.2817   -0.1018   -3.6748 C.ar      1 <0>        -0.0847
     10 O1         -0.9251    1.2695   -1.1281 O.3       1 <0>        -0.1799
     11 C10        -0.1211    0.9593    0.0118 C.3       1 <0>        -0.0349
     12 C11        -0.8175    1.4327    1.2616 C.2       1 <0>         0.2986
     13 O2         -1.8961    1.9816    1.1839 O.2       1 <0>        -0.3132
     14 N1         -0.2416    1.2460    2.4658 N.am      1 <0>        -0.3297
     15 C12        -0.8312    1.7800    3.6109 C.ar      1 <0>         0.0887
     16 C13        -1.5123    2.9912    3.5405 C.ar      1 <0>        -0.1387
     17 C14        -2.0998    3.5189    4.6683 C.ar      1 <0>        -0.0852
     18 C15        -2.0023    2.8419    5.8869 C.ar      1 <0>        -0.1484
     19 C16        -1.3129    1.6282    5.9552 C.ar      1 <0>        -0.0463
     20 C17        -0.7323    1.1034    4.8226 C.ar      1 <0>        -0.1747
     21 C18        -2.6264    3.4072    7.0991 C.2       1 <0>         0.3519
     22 O3         -2.5411    2.8169    8.1585 O.2       1 <0>        -0.3720
     23 N2         -3.2909    4.5779    7.0315 N.am      1 <0>        -0.4283
     24 H1          3.1412    0.1711   -5.6309 H         1 <0>         0.0736
     25 H2          2.8255    0.1735   -7.3827 H         1 <0>         0.0743
     26 H3          2.2926    1.5446   -6.3805 H         1 <0>         0.0784
     27 H4          0.3877    0.0605   -6.9436 H         1 <0>         0.0938
     28 H5          0.3385   -2.2456   -6.0336 H         1 <0>         0.0787
     29 H6          1.6843   -2.0399   -7.1801 H         1 <0>         0.0743
     30 H7          2.0000   -2.0423   -5.4284 H         1 <0>         0.0736
     31 H8         -1.2359    1.0181   -5.6227 H         1 <0>         0.1367
     32 H9         -2.1218    1.6762   -3.4225 H         1 <0>         0.1485
     33 H10         1.3626    0.0636   -1.5455 H         1 <0>         0.1269
     34 H11         2.2363   -0.6015   -3.7484 H         1 <0>         0.1326
     35 H12         0.0310   -0.1187    0.0667 H         1 <0>         0.0954
     36 H13         0.8439    1.4582   -0.0776 H         1 <0>         0.0958
     37 H14         0.5831    0.7400    2.5358 H         1 <0>         0.2333
     38 H15        -1.5837    3.5160    2.5993 H         1 <0>         0.1636
     39 H16        -2.6318    4.4571    4.6121 H         1 <0>         0.1298
     40 H17        -1.2361    1.1023    6.8954 H         1 <0>         0.1602
     41 H18        -0.1997    0.1653    4.8746 H         1 <0>         0.1354
     42 H19        -3.3589    5.0488    6.1862 H         1 <0>         0.2163
     43 H20        -3.7011    4.9494    7.8281 H         1 <0>         0.2313
@<TRIPOS>BOND
     1    1    2 1
     2    1   24 1
     3    1   25 1
     4    1   26 1
     5    2    3 1
     6    2    4 1
     7    2   27 1
     8    3   28 1
     9    3   29 1
    10    3   30 1
    11    4    9 ar
    12    4    5 ar
    13    5    6 ar
    14    5   31 1
    15    6    7 ar
    16    6   32 1
    17    7    8 ar
    18    7   10 1
    19    8    9 ar
    20    8   33 1
    21    9   34 1
    22   10   11 1
    23   11   12 1
    24   11   35 1
    25   11   36 1
    26   12   13 2
    27   12   14 am
    28   14   15 1
    29   14   37 1
    30   15   20 ar
    31   15   16 ar
    32   16   17 ar
    33   16   38 1
    34   17   18 ar
    35   17   39 1
    36   18   19 ar
    37   18   21 1
    38   19   20 ar
    39   19   40 1
    40   20   41 1
    41   21   22 2
    42   21   23 am
    43   23   42 1
    44   23   43 1
@<TRIPOS>MOLECULE
ZINC00516382
   41    42     0     0     0
SMALL
USER_CHARGES

@<TRIPOS>ATOM
      1 C1         -1.3328    2.1143   -0.0180 C.3       1 <0>        -0.1756
      2 C2         -0.0173    1.3791   -0.0173 C.ar      1 <0>        -0.0323
      3 C3          0.0013   -0.0034   -0.0217 C.ar      1 <0>        -0.1630
      4 C4          1.2066   -0.6809   -0.0264 C.ar      1 <0>        -0.0337
      5 C5          2.3956    0.0224   -0.0271 C.ar      1 <0>        -0.1549
      6 C6          2.3797    1.4096   -0.0231 C.ar      1 <0>         0.0985
      7 C7          1.1690    2.0870   -0.0179 C.ar      1 <0>        -0.2315
      8 O1          3.5480    2.1038   -0.0233 O.3       1 <0>        -0.1791
      9 C8          3.4554    3.5298   -0.0190 C.3       1 <0>        -0.0335
     10 C9          4.8407    4.1231   -0.0199 C.2       1 <0>         0.2997
     11 O2          5.8117    3.3964   -0.0238 O.2       1 <0>        -0.3092
     12 N1          5.0006    5.4614   -0.0164 N.am      1 <0>        -0.3339
     13 C10         6.2830    6.0125    0.0805 C.ar      1 <0>         0.1189
     14 C11         6.4802    7.1981    0.7762 C.ar      1 <0>        -0.1871
     15 C12         7.7484    7.7360    0.8756 C.ar      1 <0>        -0.0062
     16 C13         8.8191    7.1020    0.2725 C.ar      1 <0>        -0.7805
     17 C14         8.6251    5.9246   -0.4263 C.ar      1 <0>        -0.0128
     18 C15         7.3605    5.3780   -0.5237 C.ar      1 <0>        -0.1525
     19 S1         10.4342    7.7956    0.3950 S.o2      1 <0>         2.7626
     20 O3         10.4397    8.6087    1.5604 O.2       1 <0>        -0.9201
     21 O4         11.3509    6.7261    0.2079 O.2       1 <0>        -0.9119
     22 N2         10.6280    8.8160   -0.8949 N.pl3     1 <0>        -0.9294
     23 C16         1.2233   -2.1878   -0.0303 C.3       1 <0>        -0.1750
     24 H1         -1.6524    2.2882    1.0095 H         1 <0>         0.0883
     25 H2         -1.2145    3.0701   -0.5284 H         1 <0>         0.0789
     26 H3         -2.0829    1.5164   -0.5356 H         1 <0>         0.0851
     27 H4         -0.9271   -0.5551   -0.0212 H         1 <0>         0.1330
     28 H5          3.3369   -0.5072   -0.0311 H         1 <0>         0.1493
     29 H6          1.1539    3.1669   -0.0147 H         1 <0>         0.1266
     30 H7          2.9174    3.8616   -0.9070 H         1 <0>         0.0947
     31 H8          2.9208    3.8565    0.8729 H         1 <0>         0.0979
     32 H9          4.2266    6.0425   -0.0809 H         1 <0>         0.2343
     33 H10         5.6435    7.6964    1.2431 H         1 <0>         0.1366
     34 H11         7.9033    8.6550    1.4212 H         1 <0>         0.1545
     35 H12         9.4635    5.4316   -0.8959 H         1 <0>         0.1572
     36 H13         7.2098    4.4580   -1.0690 H         1 <0>         0.1738
     37 H14        11.2028    9.5934   -0.8162 H         1 <0>         0.2434
     38 H15        10.1667    8.6363   -1.7290 H         1 <0>         0.2300
     39 H16         1.2247   -2.5485   -1.0589 H         1 <0>         0.0894
     40 H17         2.1185   -2.5426    0.4804 H         1 <0>         0.0863
     41 H18         0.3386   -2.5623    0.4847 H         1 <0>         0.0835
@<TRIPOS>BOND
     1    1    2 1
     2    1   24 1
     3    1   25 1
     4    1   26 1
     5    2    7 ar
     6    2    3 ar
     7    3    4 ar
     8    3   27 1
     9    4    5 ar
    10    4   23 1
    11    5    6 ar
    12    5   28 1
    13    6    7 ar
    14    6    8 1
    15    7   29 1
    16    8    9 1
    17    9   10 1
    18    9   30 1
    19    9   31 1
    20   10   11 2
    21   10   12 am
    22   12   13 1
    23   12   32 1
    24   13   18 ar
    25   13   14 ar
    26   14   15 ar
    27   14   33 1
    28   15   16 ar
    29   15   34 1
    30   16   17 ar
    31   16   19 1
    32   17   18 ar
    33   17   35 1
    34   18   36 1
    35   19   20 2
    36   19   21 2
    37   19   22 1
    38   22   37 1
    39   22   38 1
    40   23   39 1
    41   23   40 1
    42   23   41 1
@<TRIPOS>MOLECULE
ZINC00516672
   43    44     0     0     0
SMALL
USER_CHARGES

@<TRIPOS>ATOM
      1 C1         -5.4607   11.1843   -0.5979 C.3       1 <0>        -0.2023
      2 C2         -5.5800   10.2213    0.5850 C.3       1 <0>        -0.0767
      3 C3         -5.3366   10.9831    1.8894 C.3       1 <0>        -0.2023
      4 C4         -6.9613    9.6191    0.6052 C.ar      1 <0>        -0.0850
      5 C5         -8.0696   10.4351    0.7260 C.ar      1 <0>        -0.0895
      6 C6         -9.3370    9.8833    0.7441 C.ar      1 <0>        -0.1605
      7 C7         -9.4990    8.5139    0.6409 C.ar      1 <0>        -0.0945
      8 C8         -8.3945    7.6942    0.5146 C.ar      1 <0>        -0.2220
      9 C9         -7.1210    8.2451    0.5020 C.ar      1 <0>         0.0917
     10 O1         -6.0324    7.4403    0.3831 O.3       1 <0>        -0.1792
     11 C10        -6.2724    6.0353    0.2813 C.3       1 <0>        -0.0348
     12 C11        -4.9578    5.3088    0.1576 C.2       1 <0>         0.2994
     13 O2         -3.9179    5.9329    0.1566 O.2       1 <0>        -0.3140
     14 N1         -4.9378    3.9657    0.0480 N.am      1 <0>        -0.3297
     15 C12        -3.7206    3.2857    0.0298 C.ar      1 <0>         0.0844
     16 C13        -2.6133    3.8609   -0.5856 C.ar      1 <0>        -0.1390
     17 C14        -1.4099    3.1925   -0.6050 C.ar      1 <0>        -0.0475
     18 C15        -1.3014    1.9347   -0.0056 C.ar      1 <0>        -0.1467
     19 C16        -2.4169    1.3575    0.6071 C.ar      1 <0>        -0.0881
     20 C17        -3.6160    2.0336    0.6275 C.ar      1 <0>        -0.1723
     21 C18        -0.0130    1.2149   -0.0248 C.2       1 <0>         0.3509
     22 O3          0.9554    1.7162   -0.5626 O.2       1 <0>        -0.3677
     23 N2          0.0915    0.0045    0.5585 N.am      1 <0>        -0.4298
     24 H1         -6.2014   11.9775   -0.4968 H         1 <0>         0.0690
     25 H2         -4.4616   11.6199   -0.6125 H         1 <0>         0.0760
     26 H3         -5.6340   10.6416   -1.5271 H         1 <0>         0.0783
     27 H4         -4.8392    9.4281    0.4839 H         1 <0>         0.1207
     28 H5         -5.4216   10.2970    2.7321 H         1 <0>         0.0787
     29 H6         -4.3376   11.4187    1.8748 H         1 <0>         0.0760
     30 H7         -6.0774   11.7763    1.9905 H         1 <0>         0.0688
     31 H8         -7.9458   11.5050    0.8060 H         1 <0>         0.1387
     32 H9        -10.2021   10.5229    0.8386 H         1 <0>         0.1309
     33 H10       -10.4902    8.0852    0.6550 H         1 <0>         0.1290
     34 H11        -8.5217    6.6251    0.4296 H         1 <0>         0.1261
     35 H12        -6.8831    5.8338   -0.5987 H         1 <0>         0.0946
     36 H13        -6.7955    5.6905    1.1733 H         1 <0>         0.0964
     37 H14        -5.7702    3.4720   -0.0182 H         1 <0>         0.2323
     38 H15        -2.6978    4.8331   -1.0483 H         1 <0>         0.1727
     39 H16        -0.5507    3.6397   -1.0825 H         1 <0>         0.1637
     40 H17        -2.3374    0.3838    1.0676 H         1 <0>         0.1261
     41 H18        -4.4774    1.5899    1.1044 H         1 <0>         0.1314
     42 H19         0.9393   -0.4668    0.5493 H         1 <0>         0.2313
     43 H20        -0.6811   -0.3955    0.9876 H         1 <0>         0.2143
@<TRIPOS>BOND
     1    1    2 1
     2    1   24 1
     3    1   25 1
     4    1   26 1
     5    2    3 1
     6    2    4 1
     7    2   27 1
     8    3   28 1
     9    3   29 1
    10    3   30 1
    11    4    9 ar
    12    4    5 ar
    13    5    6 ar
    14    5   31 1
    15    6    7 ar
    16    6   32 1
    17    7    8 ar
    18    7   33 1
    19    8    9 ar
    20    8   34 1
    21    9   10 1
    22   10   11 1
    23   11   12 1
    24   11   35 1
    25   11   36 1
    26   12   13 2
    27   12   14 am
    28   14   15 1
    29   14   37 1
    30   15   20 ar
    31   15   16 ar
    32   16   17 ar
    33   16   38 1
    34   17   18 ar
    35   17   39 1
    36   18   19 ar
    37   18   21 1
    38   19   20 ar
    39   19   40 1
    40   20   41 1
    41   21   22 2
    42   21   23 am
    43   23   42 1
    44   23   43 1
@<TRIPOS>MOLECULE
ZINC00522045
   42    44     0     0     0
SMALL
USER_CHARGES

@<TRIPOS>ATOM
      1 C1          5.3747   10.3234    0.0035 C.3       1 <0>        -0.0659
      2 O1          3.9566   10.4989    0.0185 O.3       1 <0>        -0.1911
      3 C2          3.1961    9.3738    0.0202 C.ar      1 <0>         0.0957
      4 C3          3.8050    8.1262    0.0081 C.ar      1 <0>        -0.2012
      5 C4          3.0380    6.9816    0.0151 C.ar      1 <0>        -0.1024
      6 C5          1.6439    7.0748    0.0236 C.ar      1 <0>        -0.1296
      7 C6          1.0308    8.3306    0.0362 C.ar      1 <0>        -0.1282
      8 C7          1.8057    9.4741    0.0345 C.ar      1 <0>         0.0612
      9 O2          1.2123   10.6977    0.0464 O.3       1 <0>        -0.1966
     10 C8         -0.2163   10.7258    0.0602 C.3       1 <0>        -0.0674
     11 C9          0.8208    5.8500    0.0253 C.2       1 <0>         0.3475
     12 O3         -0.3923    5.9327    0.0377 O.2       1 <0>        -0.3020
     13 N1          1.4137    4.6397    0.0131 N.am      1 <0>        -0.2878
     14 C10         0.6345    3.4803    0.0147 C.2       1 <0>         0.1257
     15 N2         -0.7027    3.4431    0.0273 N.2       1 <0>        -0.2621
     16 C11        -1.1112    2.1922    0.0185 C.2       1 <0>         0.1956
     17 N3         -0.0169    1.3967    0.0097 N.pl3     1 <0>        -0.1507
     18 N4          1.0960    2.2530    0.0037 N.2       1 <0>        -0.1691
     19 C12         0.0021   -0.0041    0.0020 C.ar      1 <0>         0.0870
     20 C13        -0.9632   -0.7168    0.7010 C.ar      1 <0>        -0.1680
     21 C14        -0.9454   -2.0978    0.6864 C.ar      1 <0>        -0.1081
     22 C15         0.0395   -2.7706   -0.0133 C.ar      1 <0>        -0.1373
     23 C16         1.0055   -2.0637   -0.7057 C.ar      1 <0>        -0.1105
     24 C17         0.9895   -0.6827   -0.7000 C.ar      1 <0>        -0.1203
     25 N5         -2.4264    1.7661    0.0215 N.pl3     1 <0>        -0.3908
     26 H1          5.6809    9.7642    0.8876 H         1 <0>         0.0678
     27 H2          5.6633    9.7735   -0.8923 H         1 <0>         0.0677
     28 H3          5.8615   11.2987    0.0038 H         1 <0>         0.1124
     29 H4          4.8825    8.0526   -0.0023 H         1 <0>         0.1433
     30 H5          3.5143    6.0123    0.0098 H         1 <0>         0.1271
     31 H6         -0.0464    8.4068    0.0477 H         1 <0>         0.1679
     32 H7         -0.5594   11.7604    0.0687 H         1 <0>         0.1104
     33 H8         -0.5983   10.2237   -0.8286 H         1 <0>         0.0715
     34 H9         -0.5811   10.2147    0.9512 H         1 <0>         0.0715
     35 H10         2.3814    4.5737    0.0032 H         1 <0>         0.2479
     36 H11        -1.7296   -0.1919    1.2518 H         1 <0>         0.1372
     37 H12        -1.6984   -2.6527    1.2262 H         1 <0>         0.1355
     38 H13         0.0542   -3.8505   -0.0192 H         1 <0>         0.1340
     39 H14         1.7734   -2.5920   -1.2512 H         1 <0>         0.1373
     40 H15         1.7440   -0.1311   -1.2412 H         1 <0>         0.1555
     41 H16        -2.6289    0.8175    0.0172 H         1 <0>         0.2365
     42 H17        -3.1466    2.4158    0.0280 H         1 <0>         0.2532
@<TRIPOS>BOND
     1    1    2 1
     2    1   26 1
     3    1   27 1
     4    1   28 1
     5    2    3 1
     6    3    8 ar
     7    3    4 ar
     8    4    5 ar
     9    4   29 1
    10    5    6 ar
    11    5   30 1
    12    6    7 ar
    13    6   11 1
    14    7    8 ar
    15    7   31 1
    16    8    9 1
    17    9   10 1
    18   10   32 1
    19   10   33 1
    20   10   34 1
    21   11   12 2
    22   11   13 am
    23   13   14 1
    24   13   35 1
    25   14   18 2
    26   14   15 1
    27   15   16 2
    28   16   17 1
    29   16   25 1
    30   17   18 1
    31   17   19 1
    32   19   24 ar
    33   19   20 ar
    34   20   21 ar
    35   20   36 1
    36   21   22 ar
    37   21   37 1
    38   22   23 ar
    39   22   38 1
    40   23   24 ar
    41   23   39 1
    42   24   40 1
    43   25   41 1
    44   25   42 1
@<TRIPOS>MOLECULE
ZINC00522668
   37    39     0     0     0
SMALL
USER_CHARGES

@<TRIPOS>ATOM
      1 C1         -9.5795   -1.9303    0.0826 C.3       1 <0>        -0.1887
      2 C2         -9.3062   -0.4483    0.0879 C.ar      1 <0>         0.0023
      3 C3        -10.1331    0.4222    0.7847 C.ar      1 <0>        -0.1584
      4 C4         -9.8560    1.7729    0.7691 C.ar      1 <0>         0.0111
      5 N1         -8.8106    2.2428    0.0967 N.ar      1 <0>         0.1215
      6 C5         -8.0034    1.4362   -0.5841 C.ar      1 <0>        -0.0345
      7 C6         -8.2227    0.0749   -0.6044 C.ar      1 <0>        -0.1592
      8 C7         -8.5630    3.5888    0.1007 C.2       1 <0>         0.0115
      9 C8         -7.2753    4.0602    0.0910 C.2       1 <0>        -0.3370
     10 S1         -7.5390    5.8267    0.1103 S.3       1 <0>         0.1653
     11 C9         -9.3247    5.8077    0.1191 C.2       1 <0>         0.2150
     12 O1        -10.1015    6.7454    0.1314 O.2       1 <0>        -0.3033
     13 N2         -9.5907    4.4807    0.1148 N.2       1 <0>        -0.4056
     14 C10        -6.0173    3.3133    0.0755 C.2       1 <0>        -0.0858
     15 N3         -4.8815    3.9507    0.0681 N.2       1 <0>         0.0338
     16 N4         -3.6769    3.2355    0.0531 N.am      1 <0>        -0.3317
     17 C11        -2.5016    3.8951    0.0455 C.2       1 <0>         0.3583
     18 O2         -2.4867    5.1108    0.0515 O.2       1 <0>        -0.2972
     19 C12        -1.2286    3.1392    0.0297 C.ar      1 <0>        -0.0862
     20 C13        -1.2232    1.7406    0.0173 C.ar      1 <0>        -0.1765
     21 C14        -0.0126    1.0758    0.0080 C.ar      1 <0>        -0.0491
     22 N5          1.1253    1.7415    0.0007 N.ar      1 <0>        -0.1493
     23 C15         1.1651    3.0592    0.0069 C.ar      1 <0>        -0.0484
     24 C16         0.0020    3.8039    0.0216 C.ar      1 <0>        -0.1257
     25 H1        -10.2327   -2.1764   -0.7546 H         1 <0>         0.1137
     26 H2         -8.6394   -2.4727   -0.0184 H         1 <0>         0.1000
     27 H3        -10.0639   -2.2138    1.0170 H         1 <0>         0.1032
     28 H4        -10.9839    0.0458    1.3332 H         1 <0>         0.1765
     29 H5        -10.4952    2.4559    1.3088 H         1 <0>         0.2263
     30 H6         -7.1648    1.8506   -1.1240 H         1 <0>         0.2107
     31 H7         -7.5610   -0.5765   -1.1560 H         1 <0>         0.1718
     32 H8         -6.0306    2.2334    0.0701 H         1 <0>         0.0914
     33 H9         -3.6888    2.2656    0.0483 H         1 <0>         0.1996
     34 H10        -2.1516    1.1888    0.0188 H         1 <0>         0.1259
     35 H11         0.0021   -0.0041    0.0020 H         1 <0>         0.1610
     36 H12         2.1202    3.5633    0.0002 H         1 <0>         0.1691
     37 H13         0.0421    4.8832    0.0263 H         1 <0>         0.1686
@<TRIPOS>BOND
     1    1    2 1
     2    1   25 1
     3    1   26 1
     4    1   27 1
     5    2    7 ar
     6    2    3 ar
     7    3    4 ar
     8    3   28 1
     9    4    5 ar
    10    4   29 1
    11    5    6 ar
    12    5    8 1
    13    6    7 ar
    14    6   30 1
    15    7   31 1
    16    8   13 1
    17    8    9 2
    18    9   10 1
    19    9   14 1
    20   10   11 1
    21   11   12 2
    22   11   13 1
    23   14   15 2
    24   14   32 1
    25   15   16 1
    26   16   17 am
    27   16   33 1
    28   17   18 2
    29   17   19 1
    30   19   24 ar
    31   19   20 ar
    32   20   21 ar
    33   20   34 1
    34   21   22 ar
    35   21   35 1
    36   22   23 ar
    37   23   24 ar
    38   23   36 1
    39   24   37 1
@<TRIPOS>MOLECULE
ZINC00523032
   43    44     0     0     0
SMALL
USER_CHARGES

@<TRIPOS>ATOM
      1 C1          6.3029   -1.1277    0.5901 C.3       1 <0>        -0.1722
      2 C2          7.6541   -0.5054    0.3495 C.ar      1 <0>        -0.0538
      3 C3          8.7907   -1.2897    0.3739 C.ar      1 <0>        -0.1220
      4 C4         10.0314   -0.7185    0.1584 C.ar      1 <0>        -0.1252
      5 C5         10.1381    0.6381   -0.0872 C.ar      1 <0>        -0.1243
      6 C6          9.0048    1.4269   -0.1185 C.ar      1 <0>        -0.0852
      7 C7          7.7573    0.8564    0.0974 C.ar      1 <0>         0.0531
      8 N1          6.6073    1.6529    0.0669 N.am      1 <0>        -0.3299
      9 C8          5.5658    1.3030   -0.7139 C.2       1 <0>         0.3157
     10 O1          5.6502    0.3348   -1.4394 O.2       1 <0>        -0.3214
     11 C9          4.2966    2.1149   -0.6853 C.3       1 <0>        -0.3152
     12 S1          3.0930    1.3962   -1.8365 S.3       1 <0>         0.1768
     13 C10         1.6423    2.4746   -1.6847 C.3       1 <0>        -0.3275
     14 C11         0.5523    1.9825   -2.6016 C.2       1 <0>         0.2834
     15 O2          0.7360    1.0007   -3.2898 O.2       1 <0>        -0.2535
     16 C12        -0.7302    2.6951   -2.6664 C.ar      1 <0>        -0.1523
     17 C13        -0.9466    3.8252   -1.8687 C.ar      1 <0>        -0.0897
     18 C14        -2.1477    4.4948   -1.9357 C.ar      1 <0>        -0.1571
     19 C15        -3.1512    4.0454   -2.7847 C.ar      1 <0>         0.0767
     20 C16        -2.9456    2.9170   -3.5784 C.ar      1 <0>         0.0340
     21 C17        -1.7424    2.2429   -3.5220 C.ar      1 <0>        -0.0786
     22 O3         -3.9307    2.4810   -4.4085 O.3       1 <0>        -0.2716
     23 O4         -4.3353    4.7068   -2.8425 O.3       1 <0>        -0.2761
     24 C18         9.1219    2.9052   -0.3873 C.3       1 <0>        -0.1747
     25 H1          5.9422   -1.5813   -0.3331 H         1 <0>         0.1184
     26 H2          6.3874   -1.8927    1.3619 H         1 <0>         0.0742
     27 H3          5.6016   -0.3592    0.9154 H         1 <0>         0.0732
     28 H4          8.7107   -2.3496    0.5655 H         1 <0>         0.1345
     29 H5         10.9191   -1.3332    0.1824 H         1 <0>         0.1300
     30 H6         11.1086    1.0813   -0.2551 H         1 <0>         0.1316
     31 H7          6.5596    2.4568    0.6076 H         1 <0>         0.2292
     32 H8          4.5148    3.1409   -0.9816 H         1 <0>         0.1120
     33 H9          3.8835    2.1081    0.3234 H         1 <0>         0.1105
     34 H10         1.8937    3.4090   -1.9372 H         1 <0>         0.1094
     35 H11         1.2850    2.4602   -0.6551 H         1 <0>         0.1137
     36 H12        -0.1698    4.1742   -1.2044 H         1 <0>         0.1350
     37 H13        -2.3120    5.3688   -1.3229 H         1 <0>         0.1472
     38 H14        -1.5822    1.3688   -4.1358 H         1 <0>         0.1689
     39 H15        -4.5330    1.8425   -4.0027 H         1 <0>         0.2251
     40 H16        -4.9959    4.3862   -2.2133 H         1 <0>         0.2291
     41 H17         9.2443    3.4374    0.5560 H         1 <0>         0.0794
     42 H18         9.9866    3.0913   -1.0243 H         1 <0>         0.0878
     43 H19         8.2195    3.2560   -0.8880 H         1 <0>         0.0813
@<TRIPOS>BOND
     1    1    2 1
     2    1   25 1
     3    1   26 1
     4    1   27 1
     5    2    7 ar
     6    2    3 ar
     7    3    4 ar
     8    3   28 1
     9    4    5 ar
    10    4   29 1
    11    5    6 ar
    12    5   30 1
    13    6    7 ar
    14    6   24 1
    15    7    8 1
    16    8    9 am
    17    8   31 1
    18    9   10 2
    19    9   11 1
    20   11   12 1
    21   11   32 1
    22   11   33 1
    23   12   13 1
    24   13   14 1
    25   13   34 1
    26   13   35 1
    27   14   15 2
    28   14   16 1
    29   16   21 ar
    30   16   17 ar
    31   17   18 ar
    32   17   36 1
    33   18   19 ar
    34   18   37 1
    35   19   20 ar
    36   19   23 1
    37   20   21 ar
    38   20   22 1
    39   21   38 1
    40   22   39 1
    41   23   40 1
    42   24   41 1
    43   24   42 1
    44   24   43 1
@<TRIPOS>MOLECULE
ZINC00523794
   36    38     0     0     0
SMALL
USER_CHARGES

@<TRIPOS>ATOM
      1 C1         -2.9497    0.8135    0.6856 C.3       1 <0>        -0.0681
      2 N1         -2.4706   -0.5187    0.3091 N.pl3     1 <0>        -0.1471
      3 C2         -1.1768   -0.8841    0.0081 C.2       1 <0>        -0.0009
      4 N2         -1.1964   -2.1675   -0.2783 N.2       1 <0>        -0.0636
      5 N3         -2.3933   -2.6226   -0.1700 N.2       1 <0>        -0.1108
      6 C3         -3.2138   -1.6589    0.1830 C.2       1 <0>        -0.2204
      7 S1         -4.9497   -1.8087    0.4456 S.3       1 <0>         0.2966
      8 C4         -5.1701   -3.5702    0.0927 C.3       1 <0>        -0.3113
      9 C5         -6.6221   -3.9379    0.2586 C.2       1 <0>         0.2832
     10 O1         -7.4286   -3.0922    0.5835 O.2       1 <0>        -0.2742
     11 C6         -7.0606   -5.3203    0.0269 C.ar      1 <0>        -0.1570
     12 C7         -6.1324   -6.2969   -0.3537 C.ar      1 <0>        -0.0835
     13 C8         -6.5451   -7.5934   -0.5637 C.ar      1 <0>        -0.1562
     14 C9         -7.8834   -7.9336   -0.4116 C.ar      1 <0>         0.0801
     15 C10        -8.8154   -6.9651   -0.0386 C.ar      1 <0>         0.0310
     16 C11        -8.4094   -5.6642    0.1805 C.ar      1 <0>        -0.0782
     17 O2        -10.1244   -7.3029    0.1096 O.3       1 <0>        -0.2719
     18 O3         -8.2852   -9.2124   -0.6260 O.3       1 <0>        -0.2761
     19 C12         0.0021   -0.0041    0.0020 C.2       1 <0>         0.0015
     20 C13         1.3030   -0.4092   -0.0126 C.2       1 <0>        -0.1498
     21 C14         2.0910    0.7580   -0.0138 C.2       1 <0>        -0.2197
     22 C15         1.2446    1.8069   -0.0001 C.2       1 <0>        -0.0871
     23 O4         -0.0162    1.3435    0.0094 O.3       1 <0>        -0.0650
     24 H1         -3.2369    1.3631   -0.2109 H         1 <0>         0.1000
     25 H2         -3.8127    0.7165    1.3443 H         1 <0>         0.1057
     26 H3         -2.1560    1.3521    1.2033 H         1 <0>         0.1117
     27 H4         -4.8832   -3.7605   -0.8462 H         1 <0>         0.1301
     28 H5         -4.5653   -4.1576    0.7835 H         1 <0>         0.1441
     29 H6         -5.0922   -6.0342   -0.4778 H         1 <0>         0.1450
     30 H7         -5.8273   -8.3470   -0.8523 H         1 <0>         0.1505
     31 H8         -9.1301   -4.9135    0.4693 H         1 <0>         0.1665
     32 H9        -10.6479   -7.2120   -0.6983 H         1 <0>         0.2246
     33 H10        -8.5465   -9.3947   -1.5390 H         1 <0>         0.2299
     34 H11         1.6606   -1.4283   -0.0218 H         1 <0>         0.1762
     35 H12         3.1700    0.8040   -0.0236 H         1 <0>         0.1620
     36 H13         1.5326    2.8478    0.0022 H         1 <0>         0.2018
@<TRIPOS>BOND
     1    1    2 1
     2    1   24 1
     3    1   25 1
     4    1   26 1
     5    2    6 1
     6    2    3 1
     7    3    4 2
     8    3   19 1
     9    4    5 1
    10    5    6 2
    11    6    7 1
    12    7    8 1
    13    8    9 1
    14    8   27 1
    15    8   28 1
    16    9   10 2
    17    9   11 1
    18   11   16 ar
    19   11   12 ar
    20   12   13 ar
    21   12   29 1
    22   13   14 ar
    23   13   30 1
    24   14   15 ar
    25   14   18 1
    26   15   16 ar
    27   15   17 1
    28   16   31 1
    29   17   32 1
    30   18   33 1
    31   19   23 1
    32   19   20 2
    33   20   21 1
    34   20   34 1
    35   21   22 2
    36   21   35 1
    37   22   23 1
    38   22   36 1
@<TRIPOS>MOLECULE
ZINC00524445
   43    45     0     0     0
SMALL
USER_CHARGES

@<TRIPOS>ATOM
      1 C1         -6.9366    2.2666   -1.2815 C.3       1 <0>        -0.2054
      2 C2         -5.4137    2.4113   -1.3054 C.3       1 <0>        -0.1377
      3 C3         -5.0369    3.7252   -1.9928 C.3       1 <0>        -0.2082
      4 C4         -4.8791    2.4141    0.1282 C.3       1 <0>        -0.0025
      5 N1         -3.4145    2.4323    0.1032 N.am      1 <0>        -0.3171
      6 C5         -2.6401    1.3325    0.0873 C.2       1 <0>         0.3553
      7 O1         -3.0378    0.1852    0.0919 O.2       1 <0>        -0.2958
      8 C6         -1.2218    1.7555    0.0588 C.ar      1 <0>        -0.1103
      9 C7         -0.0131    1.0773    0.0418 C.ar      1 <0>        -0.0710
     10 C8          1.1758    1.7863    0.0232 C.ar      1 <0>        -0.0927
     11 C9          1.1637    3.1810    0.0268 C.ar      1 <0>        -0.1156
     12 C10        -0.0509    3.8726    0.0492 C.ar      1 <0>        -0.0041
     13 C11        -1.2406    3.1653    0.0678 C.ar      1 <0>        -0.1431
     14 C12        -2.6676    3.5508    0.0932 C.2       1 <0>         0.3594
     15 O2         -3.0943    4.6878    0.1038 O.2       1 <0>        -0.2926
     16 C13         2.4396    3.9303    0.0072 C.2       1 <0>         0.3440
     17 O3          2.4307    5.1458    0.0104 O.2       1 <0>        -0.3474
     18 N2          3.6115    3.2651   -0.0140 N.am      1 <0>        -0.3161
     19 C14         4.8154    3.9711   -0.1269 C.ar      1 <0>         0.0345
     20 C15         4.9497    5.2170    0.4688 C.ar      1 <0>        -0.1141
     21 C16         6.1404    5.9099    0.3595 C.ar      1 <0>        -0.1202
     22 C17         7.1965    5.3691   -0.3506 C.ar      1 <0>        -0.1283
     23 C18         7.0685    4.1306   -0.9513 C.ar      1 <0>        -0.1364
     24 C19         5.8798    3.4271   -0.8426 C.ar      1 <0>         0.0373
     25 O4          5.7523    2.2090   -1.4332 O.3       1 <0>        -0.2962
     26 H1         -7.3724    3.1017   -0.7329 H         1 <0>         0.0764
     27 H2         -7.3174    2.2646   -2.3028 H         1 <0>         0.0824
     28 H3         -7.2051    1.3306   -0.7918 H         1 <0>         0.0758
     29 H4         -4.9780    1.5762   -1.8540 H         1 <0>         0.1009
     30 H5         -3.9519    3.8282   -2.0098 H         1 <0>         0.0765
     31 H6         -5.4177    3.7232   -3.0141 H         1 <0>         0.0758
     32 H7         -5.4726    4.5602   -1.4442 H         1 <0>         0.0859
     33 H8         -5.2226    1.5184    0.6458 H         1 <0>         0.1117
     34 H9         -5.2446    3.2982    0.6505 H         1 <0>         0.1137
     35 H10         0.0011   -0.0026    0.0385 H         1 <0>         0.1554
     36 H11         2.1170    1.2569    0.0061 H         1 <0>         0.1398
     37 H12        -0.0610    4.9526    0.0516 H         1 <0>         0.1770
     38 H13         3.6210    2.2972    0.0490 H         1 <0>         0.2422
     39 H14         4.1253    5.6435    1.0208 H         1 <0>         0.1691
     40 H15         6.2450    6.8780    0.8268 H         1 <0>         0.1375
     41 H16         8.1239    5.9160   -0.4365 H         1 <0>         0.1342
     42 H17         7.8951    3.7114   -1.5058 H         1 <0>         0.1424
     43 H18         5.4187    2.2447   -2.3402 H         1 <0>         0.2275
@<TRIPOS>BOND
     1    1    2 1
     2    1   26 1
     3    1   27 1
     4    1   28 1
     5    2    3 1
     6    2    4 1
     7    2   29 1
     8    3   30 1
     9    3   31 1
    10    3   32 1
    11    4    5 1
    12    4   33 1
    13    4   34 1
    14    5   14 am
    15    5    6 am
    16    6    7 2
    17    6    8 1
    18    8   13 ar
    19    8    9 ar
    20    9   10 ar
    21    9   35 1
    22   10   11 ar
    23   10   36 1
    24   11   12 ar
    25   11   16 1
    26   12   13 ar
    27   12   37 1
    28   13   14 1
    29   14   15 2
    30   16   17 2
    31   16   18 am
    32   18   19 1
    33   18   38 1
    34   19   24 ar
    35   19   20 ar
    36   20   21 ar
    37   20   39 1
    38   21   22 ar
    39   21   40 1
    40   22   23 ar
    41   22   41 1
    42   23   24 ar
    43   23   42 1
    44   24   25 1
    45   25   43 1
@<TRIPOS>MOLECULE
ZINC00524818
   40    41     0     0     0
SMALL
USER_CHARGES

@<TRIPOS>ATOM
      1 C1          4.3690    1.5443    6.2546 C.3       1 <0>        -0.2421
      2 C2          4.5330    1.6078    4.7579 C.2       1 <0>         0.3247
      3 O1          5.1930    0.7675    4.1840 O.2       1 <0>        -0.3283
      4 N1          3.9462    2.5982    4.0571 N.am      1 <0>        -0.8304
      5 S1          4.1264    2.6680    2.4124 S.o2      1 <0>         2.7498
      6 O2          5.5157    2.5257    2.1497 O.2       1 <0>        -0.8820
      7 O3          3.3785    3.7920    1.9692 O.2       1 <0>        -0.9153
      8 C3          3.3383    1.2422    1.7410 C.ar      1 <0>        -0.7880
      9 C4          2.0005    1.2953    1.3917 C.ar      1 <0>        -0.0169
     10 C5          1.3771    0.1830    0.8656 C.ar      1 <0>        -0.1835
     11 C6          2.0995   -0.9988    0.6858 C.ar      1 <0>         0.0764
     12 C7          3.4496   -1.0451    1.0406 C.ar      1 <0>        -0.1881
     13 C8          4.0601    0.0748    1.5657 C.ar      1 <0>         0.0165
     14 N2          1.4873   -2.1063    0.1647 N.2       1 <0>        -0.1733
     15 C9          1.9783   -2.6844   -0.8956 C.2       1 <0>         0.0323
     16 C10         2.8577   -1.9315   -1.8030 C.ar      1 <0>        -0.1107
     17 C11         2.9882   -0.5457   -1.6638 C.ar      1 <0>        -0.1343
     18 C12         3.8171    0.1564   -2.5114 C.ar      1 <0>        -0.1217
     19 C13         4.5153   -0.5063   -3.5117 C.ar      1 <0>         0.0704
     20 C14         4.3861   -1.8864   -3.6604 C.ar      1 <0>         0.0633
     21 C15         3.5617   -2.5987   -2.8113 C.ar      1 <0>        -0.1801
     22 O4          5.0722   -2.5316   -4.6414 O.3       1 <0>        -0.1976
     23 C16         4.8929   -3.9462   -4.7358 C.3       1 <0>        -0.0659
     24 O5          5.3263    0.1921   -4.3483 O.3       1 <0>        -0.2741
     25 H1          3.3113    1.4500    6.5006 H         1 <0>         0.0999
     26 H2          4.9106    0.6819    6.6432 H         1 <0>         0.1211
     27 H3          4.7664    2.4550    6.7026 H         1 <0>         0.1029
     28 H4          3.4183    3.2702    4.5161 H         1 <0>         0.2526
     29 H5          1.4442    2.2110    1.5271 H         1 <0>         0.1481
     30 H6          0.3328    0.2256    0.5937 H         1 <0>         0.1491
     31 H7          4.0141   -1.9557    0.9046 H         1 <0>         0.1476
     32 H8          5.1039    0.0403    1.8408 H         1 <0>         0.1734
     33 H9          1.7394   -3.7160   -1.1077 H         1 <0>         0.1664
     34 H10         2.4428   -0.0269   -0.8893 H         1 <0>         0.1659
     35 H11         3.9204    1.2257   -2.4001 H         1 <0>         0.1541
     36 H12         3.4611   -3.6679   -2.9253 H         1 <0>         0.1403
     37 H13         3.8416   -4.1677   -4.9194 H         1 <0>         0.0651
     38 H14         5.4950   -4.3348   -5.5571 H         1 <0>         0.1132
     39 H15         5.2054   -4.4151   -3.8027 H         1 <0>         0.0694
     40 H16         4.8840    0.5173   -5.1443 H         1 <0>         0.2298
@<TRIPOS>BOND
     1    1    2 1
     2    1   25 1
     3    1   26 1
     4    1   27 1
     5    2    3 2
     6    2    4 am
     7    4    5 1
     8    4   28 1
     9    5    6 2
    10    5    7 2
    11    5    8 1
    12    8   13 ar
    13    8    9 ar
    14    9   10 ar
    15    9   29 1
    16   10   11 ar
    17   10   30 1
    18   11   12 ar
    19   11   14 1
    20   12   13 ar
    21   12   31 1
    22   13   32 1
    23   14   15 2
    24   15   16 1
    25   15   33 1
    26   16   21 ar
    27   16   17 ar
    28   17   18 ar
    29   17   34 1
    30   18   19 ar
    31   18   35 1
    32   19   20 ar
    33   19   24 1
    34   20   21 ar
    35   20   22 1
    36   21   36 1
    37   22   23 1
    38   23   37 1
    39   23   38 1
    40   23   39 1
    41   24   40 1
@<TRIPOS>MOLECULE
ZINC00524820
   40    41     0     0     0
SMALL
USER_CHARGES

@<TRIPOS>ATOM
      1 C1         -3.1771    8.6204    3.5069 C.3       1 <0>        -0.2402
      2 C2         -2.1576    8.1943    2.4822 C.2       1 <0>         0.3252
      3 O1         -1.1580    7.6025    2.8309 O.2       1 <0>        -0.3304
      4 N1         -2.3566    8.4708    1.1782 N.am      1 <0>        -0.8298
      5 S1         -1.2363    8.0025    0.0521 S.o2      1 <0>         2.7488
      6 O2          0.0303    8.4232    0.5400 O.2       1 <0>        -0.8832
      7 O3         -1.7384    8.4088   -1.2136 O.2       1 <0>        -0.9124
      8 C3         -1.2124    6.2407    0.0424 C.ar      1 <0>        -0.7743
      9 C4         -2.0553    5.5453   -0.8064 C.ar      1 <0>        -0.0224
     10 C5         -2.0416    4.1660   -0.8196 C.ar      1 <0>        -0.1422
     11 C6         -1.1742    3.4715    0.0265 C.ar      1 <0>         0.0554
     12 C7         -0.3299    4.1799    0.8844 C.ar      1 <0>        -0.1939
     13 C8         -0.3505    5.5591    0.8833 C.ar      1 <0>         0.0084
     14 N2         -1.1556    2.1031    0.0190 N.2       1 <0>        -0.1725
     15 C9         -0.0179    1.4667    0.0101 C.2       1 <0>         0.0174
     16 C10         0.0021   -0.0041    0.0020 C.ar      1 <0>        -0.0530
     17 C11        -1.1986   -0.7219    0.0154 C.ar      1 <0>        -0.0998
     18 C12        -1.1772   -2.0995    0.0019 C.ar      1 <0>        -0.1342
     19 C13         0.0336   -2.7784   -0.0133 C.ar      1 <0>         0.0663
     20 C14         1.2343   -2.0702   -0.0209 C.ar      1 <0>         0.0633
     21 C15         1.2219   -0.6890   -0.0133 C.ar      1 <0>        -0.1848
     22 O4          2.4182   -2.7393   -0.0362 O.3       1 <0>        -0.1984
     23 C16         3.6094   -1.9500   -0.0438 C.3       1 <0>        -0.0661
     24 O5          0.0485   -4.1368   -0.0203 O.3       1 <0>        -0.2761
     25 H1         -3.9130    7.8273    3.6389 H         1 <0>         0.1109
     26 H2         -2.6784    8.8150    4.4564 H         1 <0>         0.1217
     27 H3         -3.6771    9.5272    3.1667 H         1 <0>         0.0904
     28 H4         -3.1561    8.9440    0.8993 H         1 <0>         0.2533
     29 H5         -2.7253    6.0836   -1.4604 H         1 <0>         0.1490
     30 H6         -2.6998    3.6245   -1.4829 H         1 <0>         0.1497
     31 H7          0.3405    3.6491    1.5442 H         1 <0>         0.1404
     32 H8          0.3048    6.1082    1.5433 H         1 <0>         0.1704
     33 H9          0.9100    2.0193    0.0042 H         1 <0>         0.1154
     34 H10        -2.1419   -0.1964    0.0321 H         1 <0>         0.1596
     35 H11        -2.1048   -2.6526    0.0081 H         1 <0>         0.1496
     36 H12         2.1515   -0.1392   -0.0196 H         1 <0>         0.1411
     37 H13         4.4799   -2.6060   -0.0560 H         1 <0>         0.1129
     38 H14         3.6197   -1.3162   -0.9305 H         1 <0>         0.0699
     39 H15         3.6374   -1.3258    0.8493 H         1 <0>         0.0657
     40 H16         0.0610   -4.5346    0.8610 H         1 <0>         0.2291
@<TRIPOS>BOND
     1    1    2 1
     2    1   25 1
     3    1   26 1
     4    1   27 1
     5    2    3 2
     6    2    4 am
     7    4    5 1
     8    4   28 1
     9    5    6 2
    10    5    7 2
    11    5    8 1
    12    8   13 ar
    13    8    9 ar
    14    9   10 ar
    15    9   29 1
    16   10   11 ar
    17   10   30 1
    18   11   12 ar
    19   11   14 1
    20   12   13 ar
    21   12   31 1
    22   13   32 1
    23   14   15 2
    24   15   16 1
    25   15   33 1
    26   16   21 ar
    27   16   17 ar
    28   17   18 ar
    29   17   34 1
    30   18   19 ar
    31   18   35 1
    32   19   20 ar
    33   19   24 1
    34   20   21 ar
    35   20   22 1
    36   21   36 1
    37   22   23 1
    38   23   37 1
    39   23   38 1
    40   23   39 1
    41   24   40 1
@<TRIPOS>MOLECULE
ZINC00524878
   39    40     0     0     0
SMALL
USER_CHARGES

@<TRIPOS>ATOM
      1 C1         -4.4285    0.1126    7.5662 C.3       1 <0>        -0.1854
      2 C2         -4.8461    1.5525    7.7193 C.ar      1 <0>        -0.0025
      3 C3         -5.6764    1.9251    8.7563 C.ar      1 <0>        -0.1404
      4 C4         -6.0600    3.2466    8.8988 C.ar      1 <0>        -0.0947
      5 C5         -5.6148    4.2031    8.0033 C.ar      1 <0>        -0.1442
      6 C6         -4.7801    3.8450    6.9653 C.ar      1 <0>        -0.0978
      7 C7         -4.3935    2.5122    6.8126 C.ar      1 <0>        -0.1408
      8 C8         -3.5038    2.1202    5.6992 C.2       1 <0>         0.3523
      9 O1         -3.0760    0.9842    5.6340 O.2       1 <0>        -0.3493
     10 N1         -3.1668    3.0224    4.7562 N.am      1 <0>        -0.3286
     11 C9         -2.4149    2.6256    3.6459 C.ar      1 <0>         0.1248
     12 C10        -2.5844    1.3562    3.1082 C.ar      1 <0>        -0.1588
     13 C11        -1.8406    0.9676    2.0113 C.ar      1 <0>        -0.0134
     14 C12        -0.9282    1.8409    1.4481 C.ar      1 <0>        -0.7820
     15 C13        -0.7533    3.1036    1.9843 C.ar      1 <0>         0.0139
     16 C14        -1.4974    3.5001    3.0781 C.ar      1 <0>        -0.1917
     17 S1          0.0187    1.3412    0.0488 S.o2      1 <0>         2.7490
     18 O2          0.0664   -0.0787    0.0767 O.2       1 <0>        -0.9114
     19 O3          1.1920    2.1429    0.0450 O.2       1 <0>        -0.8832
     20 N2         -0.8445    1.7593   -1.3012 N.am      1 <0>        -0.8302
     21 C15        -1.0748    3.0580   -1.5784 C.2       1 <0>         0.3249
     22 O4         -0.6498    3.9204   -0.8391 O.2       1 <0>        -0.3311
     23 C16        -1.8603    3.4385   -2.8069 C.3       1 <0>        -0.2406
     24 H1         -3.4479   -0.0315    8.0198 H         1 <0>         0.1029
     25 H2         -5.1558   -0.5312    8.0608 H         1 <0>         0.0717
     26 H3         -4.3797   -0.1409    6.5072 H         1 <0>         0.1222
     27 H4         -6.0274    1.1834    9.4586 H         1 <0>         0.1395
     28 H5         -6.7095    3.5331    9.7127 H         1 <0>         0.1339
     29 H6         -5.9176    5.2331    8.1204 H         1 <0>         0.1342
     30 H7         -4.4297    4.5932    6.2697 H         1 <0>         0.1228
     31 H8         -3.4458    3.9468    4.8478 H         1 <0>         0.2379
     32 H9         -3.2973    0.6740    3.5471 H         1 <0>         0.1634
     33 H10        -1.9719   -0.0192    1.5927 H         1 <0>         0.1495
     34 H11        -0.0367    3.7816    1.5448 H         1 <0>         0.1711
     35 H12        -1.3632    4.4878    3.4939 H         1 <0>         0.1382
     36 H13        -1.1844    1.0695   -1.8925 H         1 <0>         0.2527
     37 H14        -2.9202    3.4921   -2.5582 H         1 <0>         0.1094
     38 H15        -1.5222    4.4098   -3.1679 H         1 <0>         0.1212
     39 H16        -1.7067    2.6887   -3.5830 H         1 <0>         0.0906
@<TRIPOS>BOND
     1    1    2 1
     2    1   24 1
     3    1   25 1
     4    1   26 1
     5    2    7 ar
     6    2    3 ar
     7    3    4 ar
     8    3   27 1
     9    4    5 ar
    10    4   28 1
    11    5    6 ar
    12    5   29 1
    13    6    7 ar
    14    6   30 1
    15    7    8 1
    16    8    9 2
    17    8   10 am
    18   10   11 1
    19   10   31 1
    20   11   16 ar
    21   11   12 ar
    22   12   13 ar
    23   12   32 1
    24   13   14 ar
    25   13   33 1
    26   14   15 ar
    27   14   17 1
    28   15   16 ar
    29   15   34 1
    30   16   35 1
    31   17   18 2
    32   17   19 2
    33   17   20 1
    34   20   21 am
    35   20   36 1
    36   21   22 2
    37   21   23 1
    38   23   37 1
    39   23   38 1
    40   23   39 1
@<TRIPOS>MOLECULE
ZINC00524891
   39    40     0     0     0
SMALL
USER_CHARGES

@<TRIPOS>ATOM
      1 C1         -6.0094   -1.0298   -1.0556 C.3       1 <0>        -0.1803
      2 C2         -4.7203   -0.2592   -0.9307 C.ar      1 <0>        -0.0452
      3 C3         -4.6392    1.0317   -1.4221 C.ar      1 <0>        -0.1392
      4 C4         -3.4620    1.7424   -1.3113 C.ar      1 <0>        -0.0577
      5 C5         -2.3514    1.1566   -0.7015 C.ar      1 <0>        -0.1403
      6 C6         -2.4386   -0.1479   -0.2123 C.ar      1 <0>        -0.0993
      7 C7         -3.6233   -0.8456   -0.3248 C.ar      1 <0>        -0.1373
      8 C8         -1.0867    1.9120   -0.5799 C.2       1 <0>         0.3519
      9 O1         -1.0122    3.0461   -1.0114 O.2       1 <0>        -0.3496
     10 N1         -0.0162    1.3436    0.0094 N.am      1 <0>        -0.3285
     11 C9          1.2074    2.0201    0.0385 C.ar      1 <0>         0.1210
     12 C10         2.3975    1.3104   -0.0577 C.ar      1 <0>        -0.1912
     13 C11         3.6040    1.9822   -0.0350 C.ar      1 <0>         0.0118
     14 C12         3.6283    3.3587    0.0954 C.ar      1 <0>        -0.7807
     15 C13         2.4454    4.0676    0.1976 C.ar      1 <0>        -0.0152
     16 C14         1.2354    3.4025    0.1693 C.ar      1 <0>        -0.1579
     17 S1          5.1700    4.2112    0.1307 S.o2      1 <0>         2.7486
     18 O2          6.1110    3.3761   -0.5298 O.2       1 <0>        -0.8838
     19 O3          4.9072    5.5432   -0.2887 O.2       1 <0>        -0.9113
     20 N2          5.6448    4.2987    1.7148 N.am      1 <0>        -0.8296
     21 C15         5.9414    3.1722    2.3926 C.2       1 <0>         0.3252
     22 O4          5.8605    2.0943    1.8425 O.2       1 <0>        -0.3322
     23 C16         6.3735    3.2518    3.8341 C.3       1 <0>        -0.2385
     24 H1         -6.0134   -1.5812   -1.9958 H         1 <0>         0.0925
     25 H2         -6.0968   -1.7289   -0.2240 H         1 <0>         0.0850
     26 H3         -6.8503   -0.3365   -1.0375 H         1 <0>         0.0866
     27 H4         -5.4992    1.4837   -1.8936 H         1 <0>         0.1393
     28 H5         -3.4000    2.7500   -1.6953 H         1 <0>         0.1580
     29 H6         -1.5817   -0.6083    0.2569 H         1 <0>         0.1233
     30 H7         -3.6934   -1.8535    0.0570 H         1 <0>         0.1356
     31 H8         -0.0955    0.4669    0.4169 H         1 <0>         0.2375
     32 H9          2.3792    0.2350   -0.1551 H         1 <0>         0.1376
     33 H10         4.5296    1.4315   -0.1149 H         1 <0>         0.1708
     34 H11         2.4679    5.1426    0.2993 H         1 <0>         0.1497
     35 H12         0.3119    3.9568    0.2484 H         1 <0>         0.1711
     36 H13         5.7096    5.1607    2.1548 H         1 <0>         0.2529
     37 H14         6.3868    4.2942    4.1524 H         1 <0>         0.0838
     38 H15         5.6743    2.6913    4.4546 H         1 <0>         0.1154
     39 H16         7.3722    2.8275    3.9380 H         1 <0>         0.1199
@<TRIPOS>BOND
     1    1    2 1
     2    1   24 1
     3    1   25 1
     4    1   26 1
     5    2    7 ar
     6    2    3 ar
     7    3    4 ar
     8    3   27 1
     9    4    5 ar
    10    4   28 1
    11    5    6 ar
    12    5    8 1
    13    6    7 ar
    14    6   29 1
    15    7   30 1
    16    8    9 2
    17    8   10 am
    18   10   11 1
    19   10   31 1
    20   11   16 ar
    21   11   12 ar
    22   12   13 ar
    23   12   32 1
    24   13   14 ar
    25   13   33 1
    26   14   15 ar
    27   14   17 1
    28   15   16 ar
    29   15   34 1
    30   16   35 1
    31   17   18 2
    32   17   19 2
    33   17   20 1
    34   20   21 am
    35   20   36 1
    36   21   22 2
    37   21   23 1
    38   23   37 1
    39   23   38 1
    40   23   39 1
@<TRIPOS>MOLECULE
ZINC00527353
   44    46     0     0     0
SMALL
USER_CHARGES

@<TRIPOS>ATOM
      1 C1          1.8165    3.3569   -0.1825 C.3       1 <0>        -0.2036
      2 C2          1.5211    1.8665   -0.0024 C.3       1 <0>        -0.0565
      3 C3          1.7766    1.0400   -1.3160 C.3       1 <0>        -0.1295
      4 C4          1.2222   -0.3550   -0.8837 C.3       1 <0>        -0.1548
      5 C5          0.0021   -0.0041    0.0020 C.3       1 <0>        -0.1770
      6 C6         -0.0191    1.5567    0.0106 C.3       1 <0>         0.0393
      7 O1         -0.3780    1.9242   -1.3747 O.3       1 <0>        -0.2582
      8 C7          0.6660    1.6128   -2.2092 C.2       1 <0>         0.3301
      9 O2          0.7192    1.7658   -3.4066 O.2       1 <0>        -0.2766
     10 C8         -0.8217    2.2014    1.1111 C.2       1 <0>         0.3625
     11 O3         -0.2779    2.5351    2.1430 O.2       1 <0>        -0.3080
     12 N1         -2.1438    2.4074    0.9490 N.am      1 <0>        -0.3211
     13 N2         -2.8900    3.0067    1.9721 N.2       1 <0>         0.0185
     14 C9         -4.1635    3.2051    1.8160 C.2       1 <0>        -0.1069
     15 C10        -4.9481    3.8353    2.8917 C.ar      1 <0>        -0.0892
     16 C11        -6.3178    4.0554    2.7244 C.ar      1 <0>        -0.0811
     17 C12        -7.0489    4.6407    3.7347 C.ar      1 <0>        -0.1722
     18 C13        -6.4267    5.0229    4.9175 C.ar      1 <0>         0.0998
     19 C14        -5.0663    4.8139    5.0911 C.ar      1 <0>        -0.1912
     20 C15        -4.3223    4.2221    4.0855 C.ar      1 <0>         0.1263
     21 O4         -2.9905    4.0169    4.2541 O.3       1 <0>        -0.2638
     22 O5         -7.1536    5.6038    5.9071 O.3       1 <0>        -0.2892
     23 C16         3.1964    1.0649   -1.8856 C.3       1 <0>        -0.1708
     24 C17         2.2464    1.2779    1.2093 C.3       1 <0>        -0.2039
     25 H1          1.3901    3.9151    0.6510 H         1 <0>         0.0996
     26 H2          2.8949    3.5128   -0.2103 H         1 <0>         0.0859
     27 H3          1.3749    3.7046   -1.1164 H         1 <0>         0.0835
     28 H4          1.9687   -0.9027   -0.3085 H         1 <0>         0.1046
     29 H5          0.9107   -0.9328   -1.7539 H         1 <0>         0.1002
     30 H6          0.1391   -0.3902    1.0121 H         1 <0>         0.1126
     31 H7         -0.9161   -0.3966   -0.4351 H         1 <0>         0.1033
     32 H8         -2.5786    2.1406    0.1240 H         1 <0>         0.2198
     33 H9         -4.6477    2.9081    0.8974 H         1 <0>         0.1190
     34 H10        -6.8038    3.7631    1.8053 H         1 <0>         0.1368
     35 H11        -8.1082    4.8069    3.6058 H         1 <0>         0.1445
     36 H12        -4.5876    5.1131    6.0119 H         1 <0>         0.1550
     37 H13        -2.4385    4.7535    3.9579 H         1 <0>         0.2413
     38 H14        -7.1977    6.5680    5.8486 H         1 <0>         0.2313
     39 H15         3.2373    0.4524   -2.7863 H         1 <0>         0.0923
     40 H16         3.4715    2.0906   -2.1309 H         1 <0>         0.0895
     41 H17         3.8918    0.6692   -1.1453 H         1 <0>         0.0827
     42 H18         2.1001    0.1980    1.2312 H         1 <0>         0.0778
     43 H19         3.3114    1.4989    1.1380 H         1 <0>         0.0820
     44 H20         1.8445    1.7176    2.1222 H         1 <0>         0.1155
@<TRIPOS>BOND
     1    1    2 1
     2    1   25 1
     3    1   26 1
     4    1   27 1
     5    2    6 1
     6    2    3 1
     7    2   24 1
     8    3    8 1
     9    3    4 1
    10    3   23 1
    11    4    5 1
    12    4   28 1
    13    4   29 1
    14    5    6 1
    15    5   30 1
    16    5   31 1
    17    6    7 1
    18    6   10 1
    19    7    8 1
    20    8    9 2
    21   10   11 2
    22   10   12 am
    23   12   13 1
    24   12   32 1
    25   13   14 2
    26   14   15 1
    27   14   33 1
    28   15   20 ar
    29   15   16 ar
    30   16   17 ar
    31   16   34 1
    32   17   18 ar
    33   17   35 1
    34   18   19 ar
    35   18   22 1
    36   19   20 ar
    37   19   36 1
    38   20   21 1
    39   21   37 1
    40   22   38 1
    41   23   39 1
    42   23   40 1
    43   23   41 1
    44   24   42 1
    45   24   43 1
    46   24   44 1
@<TRIPOS>MOLECULE
ZINC00531980
   44    46     0     0     0
SMALL
USER_CHARGES

@<TRIPOS>ATOM
      1 C1          2.6305   10.0659   -1.6220 C.3       1 <0>        -0.1999
      2 C2          1.9319    9.7149   -0.3068 C.3       1 <0>        -0.0295
      3 C3          0.4644   10.1418   -0.3791 C.3       1 <0>        -0.2039
      4 C4          2.6197   10.4470    0.8472 C.3       1 <0>        -0.2043
      5 C5          2.0116    8.2277   -0.0769 C.ar      1 <0>        -0.0738
      6 C6          0.8641    7.5145    0.2260 C.ar      1 <0>        -0.0990
      7 C7          0.9247    6.1505    0.4394 C.ar      1 <0>        -0.1574
      8 C8          2.1366    5.4856    0.3446 C.ar      1 <0>         0.1085
      9 C9          3.3017    6.2044    0.0435 C.ar      1 <0>        -0.1247
     10 C10         3.2269    7.5830   -0.1695 C.ar      1 <0>        -0.1024
     11 C11         4.5970    5.5089   -0.0538 C.2       1 <0>        -0.0082
     12 N1          5.6969    6.1448    0.2130 N.2       1 <0>        -0.0066
     13 N2          5.6466    7.4119    0.8085 N.am      1 <0>        -0.2593
     14 C12         6.2287    8.4599    0.1861 C.2       1 <0>         0.3576
     15 O1          6.7925    8.3164   -0.8819 O.2       1 <0>        -0.3058
     16 C13         6.1619    9.7814    0.8338 C.ar      1 <0>        -0.1925
     17 C14         6.7375   10.9107    0.2556 C.ar      1 <0>        -0.0244
     18 C15         6.6480   12.1253    0.9023 C.ar      1 <0>        -0.1740
     19 C16         5.9912   12.2259    2.1194 C.ar      1 <0>        -0.0612
     20 C17         5.4166   11.1145    2.7031 C.ar      1 <0>        -0.1906
     21 C18         5.4959    9.8848    2.0677 C.ar      1 <0>         0.1066
     22 N3          4.9328    8.7436    2.6198 N.am      1 <0>        -0.3042
     23 H1          4.4559    8.8013    3.4968 H         1 <0>         0.2734
     24 C19         5.0221    7.5609    1.9872 C.2       1 <0>         0.4026
     25 O2          4.5158    6.5843    2.5051 O.2       1 <0>        -0.3824
     26 O3          2.1963    4.1444    0.5481 O.3       1 <0>        -0.2956
     27 H2          2.1404    9.5443   -2.4441 H         1 <0>         0.0822
     28 H3          2.5728   11.1416   -1.7883 H         1 <0>         0.0768
     29 H4          3.6759    9.7617   -1.5705 H         1 <0>         0.0792
     30 H5         -0.0333    9.8918    0.5579 H         1 <0>         0.0750
     31 H6          0.4067   11.2175   -0.5454 H         1 <0>         0.0780
     32 H7         -0.0256    9.6203   -1.2013 H         1 <0>         0.0801
     33 H8          3.6866   10.2243    0.8343 H         1 <0>         0.0784
     34 H9          2.4714   11.5211    0.7359 H         1 <0>         0.0784
     35 H10         2.1912   10.1172    1.7936 H         1 <0>         0.0739
     36 H11        -0.0838    8.0272    0.2963 H         1 <0>         0.1414
     37 H12         0.0254    5.6012    0.6756 H         1 <0>         0.1425
     38 H13         4.1196    8.1430   -0.4060 H         1 <0>         0.1450
     39 H14         4.6314    4.4700   -0.3472 H         1 <0>         0.1984
     40 H15         7.2503   10.8353   -0.6919 H         1 <0>         0.1618
     41 H16         7.0925   13.0037    0.4583 H         1 <0>         0.1418
     42 H17         5.9289   13.1830    2.6158 H         1 <0>         0.1383
     43 H18         4.9109   11.2018    3.6535 H         1 <0>         0.1398
     44 H19         2.2753    3.8908    1.4780 H         1 <0>         0.2400
@<TRIPOS>BOND
     1    1    2 1
     2    1   27 1
     3    1   28 1
     4    1   29 1
     5    2    3 1
     6    2    4 1
     7    2    5 1
     8    3   30 1
     9    3   31 1
    10    3   32 1
    11    4   33 1
    12    4   34 1
    13    4   35 1
    14    5   10 ar
    15    5    6 ar
    16    6    7 ar
    17    6   36 1
    18    7    8 ar
    19    7   37 1
    20    8    9 ar
    21    8   26 1
    22    9   10 ar
    23    9   11 1
    24   10   38 1
    25   11   12 2
    26   11   39 1
    27   12   13 1
    28   13   24 am
    29   13   14 am
    30   14   15 2
    31   14   16 1
    32   16   21 ar
    33   16   17 ar
    34   17   18 ar
    35   17   40 1
    36   18   19 ar
    37   18   41 1
    38   19   20 ar
    39   19   42 1
    40   20   21 ar
    41   20   43 1
    42   21   22 1
    43   22   23 1
    44   22   24 am
    45   24   25 2
    46   26   44 1
@<TRIPOS>MOLECULE
ZINC00531981
   44    46     0     0     0
SMALL
USER_CHARGES

@<TRIPOS>ATOM
      1 C1          6.2402   10.5581    0.6980 C.3       1 <0>        -0.1984
      2 C2          6.9225    9.9919   -0.5489 C.3       1 <0>        -0.0294
      3 C3          8.3365   10.5652   -0.6613 C.3       1 <0>        -0.2042
      4 C4          6.1159   10.3769   -1.7908 C.3       1 <0>        -0.1988
      5 C5          6.9961    8.4904   -0.4433 C.ar      1 <0>        -0.0832
      6 C6          8.2278    7.8579   -0.4583 C.ar      1 <0>        -0.0938
      7 C7          8.3080    6.4817   -0.3617 C.ar      1 <0>        -0.1657
      8 C8          7.1534    5.7250   -0.2431 C.ar      1 <0>         0.1212
      9 C9          5.9041    6.3606   -0.2333 C.ar      1 <0>        -0.0934
     10 C10         5.8368    7.7525   -0.3317 C.ar      1 <0>        -0.0796
     11 C11         4.6693    5.5656   -0.1138 C.2       1 <0>        -0.0220
     12 N1          4.7362    4.2724   -0.0225 N.2       1 <0>         0.0106
     13 N2          3.5616    3.5088   -0.0179 N.am      1 <0>        -0.2605
     14 C12         2.7921    3.4705   -1.1273 C.2       1 <0>         0.3454
     15 O1          3.1067    4.0888   -2.1263 O.2       1 <0>        -0.3360
     16 C13         1.5619    2.6604   -1.0961 C.ar      1 <0>        -0.1910
     17 C14         0.7155    2.5707   -2.1990 C.ar      1 <0>        -0.0250
     18 C15        -0.4247    1.7992   -2.1190 C.ar      1 <0>        -0.1757
     19 C16        -0.7299    1.1164   -0.9513 C.ar      1 <0>        -0.0606
     20 C17         0.1005    1.1969    0.1487 C.ar      1 <0>        -0.1902
     21 C18         1.2515    1.9676    0.0873 C.ar      1 <0>         0.1078
     22 N3          2.1124    2.0759    1.1696 N.am      1 <0>        -0.3090
     23 H1          1.9051    1.5888    2.0180 H         1 <0>         0.2746
     24 C19         3.2226    2.8294    1.0889 C.2       1 <0>         0.4102
     25 O2          3.9507    2.8987    2.0602 O.2       1 <0>        -0.3497
     26 O3          7.2315    4.3732   -0.1420 O.3       1 <0>        -0.2674
     27 H2          6.8148   10.2838    1.5827 H         1 <0>         0.0812
     28 H3          6.1870   11.6441    0.6216 H         1 <0>         0.0765
     29 H4          5.2328   10.1496    0.7781 H         1 <0>         0.0743
     30 H5          8.8226   10.1619   -1.5497 H         1 <0>         0.0772
     31 H6          8.2833   11.6512   -0.7377 H         1 <0>         0.0779
     32 H7          8.9112   10.2910    0.2234 H         1 <0>         0.0784
     33 H8          5.1085    9.9684   -1.7107 H         1 <0>         0.0749
     34 H9          6.0627   11.4629   -1.8672 H         1 <0>         0.0766
     35 H10         6.6020    9.9735   -2.6791 H         1 <0>         0.0800
     36 H11         9.1310    8.4435   -0.5457 H         1 <0>         0.1415
     37 H12         9.2724    5.9956   -0.3741 H         1 <0>         0.1447
     38 H13         4.8781    8.2497   -0.3207 H         1 <0>         0.1373
     39 H14         3.7086    6.0588   -0.1021 H         1 <0>         0.1275
     40 H15         0.9504    3.1016   -3.1096 H         1 <0>         0.1593
     41 H16        -1.0843    1.7266   -2.9710 H         1 <0>         0.1404
     42 H17        -1.6262    0.5160   -0.9018 H         1 <0>         0.1376
     43 H18        -0.1478    0.6651    1.0553 H         1 <0>         0.1396
     44 H19         7.2126    3.9134   -0.9925 H         1 <0>         0.2387
@<TRIPOS>BOND
     1    1    2 1
     2    1   27 1
     3    1   28 1
     4    1   29 1
     5    2    3 1
     6    2    4 1
     7    2    5 1
     8    3   30 1
     9    3   31 1
    10    3   32 1
    11    4   33 1
    12    4   34 1
    13    4   35 1
    14    5   10 ar
    15    5    6 ar
    16    6    7 ar
    17    6   36 1
    18    7    8 ar
    19    7   37 1
    20    8    9 ar
    21    8   26 1
    22    9   10 ar
    23    9   11 1
    24   10   38 1
    25   11   12 2
    26   11   39 1
    27   12   13 1
    28   13   24 am
    29   13   14 am
    30   14   15 2
    31   14   16 1
    32   16   21 ar
    33   16   17 ar
    34   17   18 ar
    35   17   40 1
    36   18   19 ar
    37   18   41 1
    38   19   20 ar
    39   19   42 1
    40   20   21 ar
    41   20   43 1
    42   21   22 1
    43   22   23 1
    44   22   24 am
    45   24   25 2
    46   26   44 1
@<TRIPOS>MOLECULE
ZINC00532000
   43    46     0     0     0
SMALL
USER_CHARGES

@<TRIPOS>ATOM
      1 C1          9.4826   -9.0774   -1.5934 C.3       1 <0>        -0.1670
      2 C2          9.3841   -7.5737   -1.5828 C.ar      1 <0>        -0.1799
      3 C3          8.1625   -6.9798   -1.5656 C.ar      1 <0>         0.0160
      4 C4          8.0614   -5.5719   -1.5561 C.ar      1 <0>        -0.1349
      5 C5          9.2430   -4.7908   -1.5637 C.ar      1 <0>         0.1233
      6 C6         10.4806   -5.4170   -1.5808 C.ar      1 <0>        -0.2877
      7 C7         10.5531   -6.8021   -1.5903 C.ar      1 <0>         0.1969
      8 N1         11.7915   -7.4274   -1.6079 N.pl3     1 <0>        -0.3896
      9 N2          9.1666   -3.4129   -1.5546 N.pl3     1 <0>        -0.1912
     10 H1          9.9713   -2.8713   -1.5603 H         1 <0>         0.2674
     11 C8          7.9337   -2.8305   -1.5378 C.2       1 <0>         0.1758
     12 N3          7.7738   -1.5170   -1.5287 N.2       1 <0>        -0.3192
     13 C9          6.5639   -0.9639   -1.5179 C.2       1 <0>         0.3775
     14 O1          6.4910    0.2525   -1.5151 O.2       1 <0>        -0.3350
     15 N4          5.4200   -1.6630   -1.5046 N.am      1 <0>        -0.3301
     16 C10         5.4231   -3.0161   -1.5124 C.2       1 <0>         0.3654
     17 O2          4.3867   -3.6522   -1.5055 O.2       1 <0>        -0.3014
     18 C11         6.7393   -3.6881   -1.5301 C.2       1 <0>        -0.1537
     19 N5          6.8568   -4.9939   -1.5383 N.2       1 <0>         0.0051
     20 C12         4.1416   -0.9479   -1.4876 C.3       1 <0>        -0.0107
     21 C13         3.7112   -0.7071   -0.0392 C.3       1 <0>        -0.1405
     22 C14         2.3960    0.0285   -0.0217 C.ar      1 <0>        -0.0774
     23 C15         1.2084   -0.6789   -0.0136 C.ar      1 <0>        -0.1223
     24 C16         0.0021   -0.0041    0.0020 C.ar      1 <0>        -0.1291
     25 C17        -0.0167    1.3781    0.0096 C.ar      1 <0>        -0.1306
     26 C18         1.1709    2.0855    0.0021 C.ar      1 <0>        -0.1287
     27 C19         2.3773    1.4107   -0.0141 C.ar      1 <0>        -0.1202
     28 H2          9.5172   -9.4465   -0.5683 H         1 <0>         0.0901
     29 H3          8.6129   -9.4949   -2.1006 H         1 <0>         0.0944
     30 H4         10.3889   -9.3785   -2.1188 H         1 <0>         0.0739
     31 H5          7.2682   -7.5851   -1.5596 H         1 <0>         0.1642
     32 H6         11.3855   -4.8275   -1.5870 H         1 <0>         0.1445
     33 H7         12.6030   -6.8961   -1.6134 H         1 <0>         0.2288
     34 H8         11.8458   -8.3958   -1.6146 H         1 <0>         0.2337
     35 H9          3.3848   -1.5443   -1.9971 H         1 <0>         0.1133
     36 H10         4.2537    0.0092   -1.9971 H         1 <0>         0.1240
     37 H11         4.4679   -0.1107    0.4703 H         1 <0>         0.1032
     38 H12         3.5990   -1.6641    0.4703 H         1 <0>         0.0969
     39 H13         1.2231   -1.7587   -0.0199 H         1 <0>         0.1347
     40 H14        -0.9258   -0.5567    0.0079 H         1 <0>         0.1278
     41 H15        -0.9592    1.9054    0.0170 H         1 <0>         0.1264
     42 H16         1.1563    3.1654    0.0077 H         1 <0>         0.1284
     43 H17         3.3051    1.9634   -0.0207 H         1 <0>         0.1374
@<TRIPOS>BOND
     1    1    2 1
     2    1   28 1
     3    1   29 1
     4    1   30 1
     5    2    7 ar
     6    2    3 ar
     7    3    4 ar
     8    3   31 1
     9    4   19 1
    10    4    5 ar
    11    5    6 ar
    12    5    9 1
    13    6    7 ar
    14    6   32 1
    15    7    8 1
    16    8   33 1
    17    8   34 1
    18    9   10 1
    19    9   11 1
    20   11   18 1
    21   11   12 2
    22   12   13 1
    23   13   14 2
    24   13   15 am
    25   15   16 am
    26   15   20 1
    27   16   17 2
    28   16   18 1
    29   18   19 2
    30   20   21 1
    31   20   35 1
    32   20   36 1
    33   21   22 1
    34   21   37 1
    35   21   38 1
    36   22   27 ar
    37   22   23 ar
    38   23   24 ar
    39   23   39 1
    40   24   25 ar
    41   24   40 1
    42   25   26 ar
    43   25   41 1
    44   26   27 ar
    45   26   42 1
    46   27   43 1
@<TRIPOS>MOLECULE
ZINC00536746
   38    41     0     0     0
SMALL
USER_CHARGES

@<TRIPOS>ATOM
      1 C1         -8.1807   -1.1776   -0.2764 C.3       1 <0>        -0.0626
      2 O1         -6.7575   -1.2943   -0.2220 O.3       1 <0>        -0.2171
      3 C2         -6.2432   -2.5500   -0.1804 C.ar      1 <0>         0.1631
      4 C3         -7.0846   -3.6463   -0.1910 C.ar      1 <0>        -0.2669
      5 C4         -6.5615   -4.9299   -0.1481 C.ar      1 <0>        -0.0410
      6 C5         -5.2000   -5.1342   -0.0944 C.ar      1 <0>        -0.1979
      7 C6         -4.3297   -4.0476   -0.0826 C.ar      1 <0>         0.0901
      8 C7         -4.8548   -2.7421   -0.1260 C.ar      1 <0>        -0.1463
      9 C8         -3.7119   -1.8328   -0.1010 C.2       1 <0>         0.0667
     10 C9         -2.5750   -2.6200   -0.0447 C.2       1 <0>        -0.1624
     11 N1         -2.9568   -3.9528   -0.0340 N.pl3     1 <0>        -0.1582
     12 H1         -2.3473   -4.7066    0.0023 H         1 <0>         0.2634
     13 C10        -1.3110   -1.9817   -0.0145 C.2       1 <0>         0.3653
     14 O2         -0.2893   -2.6438    0.0306 O.2       1 <0>        -0.3546
     15 N2         -1.2481   -0.6356   -0.0320 N.am      1 <0>        -0.2493
     16 C11        -2.3644    0.1114   -0.0872 C.2       1 <0>         0.4091
     17 O3         -2.2697    1.3237   -0.1063 O.2       1 <0>        -0.3567
     18 N3         -3.5853   -0.4556   -0.1214 N.am      1 <0>        -0.2771
     19 H2         -4.4020    0.1201   -0.1616 H         1 <0>         0.2852
     20 N4          0.0021   -0.0041    0.0020 N.2       1 <0>        -0.0025
     21 C12         0.8224   -0.1348   -0.9949 C.2       1 <0>        -0.0164
     22 C13         2.1805    0.4341   -0.9118 C.ar      1 <0>        -0.1262
     23 C14         3.0780    0.2949   -1.9788 C.ar      1 <0>        -0.0619
     24 C15         4.3380    0.8514   -1.8522 C.ar      1 <0>        -0.1992
     25 C16         4.6728    1.5115   -0.6831 C.ar      1 <0>        -0.0237
     26 N5          3.8092    1.6231    0.3078 N.ar      1 <0>        -0.1684
     27 C17         2.5962    1.1157    0.2340 C.ar      1 <0>         0.0074
     28 H3         -8.5522   -1.6760   -1.1717 H         1 <0>         0.0732
     29 H4         -8.6174   -1.6438    0.6068 H         1 <0>         0.0741
     30 H5         -8.4580   -0.1238   -0.3056 H         1 <0>         0.1123
     31 H6         -8.1542   -3.5028   -0.2324 H         1 <0>         0.1407
     32 H7         -7.2289   -5.7790   -0.1568 H         1 <0>         0.1372
     33 H8         -4.8070   -6.1396   -0.0617 H         1 <0>         0.1365
     34 H9          0.5121   -0.6641   -1.8837 H         1 <0>         0.1310
     35 H10         2.7920   -0.2299   -2.8784 H         1 <0>         0.1404
     36 H11         5.0547    0.7677   -2.6558 H         1 <0>         0.1419
     37 H12         5.6576    1.9429   -0.5803 H         1 <0>         0.1620
     38 H13         1.9172    1.2280    1.0663 H         1 <0>         0.1885
@<TRIPOS>BOND
     1    1    2 1
     2    1   28 1
     3    1   29 1
     4    1   30 1
     5    2    3 1
     6    3    8 ar
     7    3    4 ar
     8    4    5 ar
     9    4   31 1
    10    5    6 ar
    11    5   32 1
    12    6    7 ar
    13    6   33 1
    14    7   11 1
    15    7    8 ar
    16    8    9 1
    17    9   18 1
    18    9   10 2
    19   10   11 1
    20   10   13 1
    21   11   12 1
    22   13   14 2
    23   13   15 am
    24   15   16 am
    25   15   20 1
    26   16   17 2
    27   16   18 am
    28   18   19 1
    29   20   21 2
    30   21   22 1
    31   21   34 1
    32   22   27 ar
    33   22   23 ar
    34   23   24 ar
    35   23   35 1
    36   24   25 ar
    37   24   36 1
    38   25   26 ar
    39   25   37 1
    40   26   27 ar
    41   27   38 1
@<TRIPOS>MOLECULE
ZINC00536819
   39    41     0     0     0
SMALL
USER_CHARGES

@<TRIPOS>ATOM
      1 C1          2.2663   -2.4562   -1.7884 C.3       1 <0>        -0.0621
      2 O1          1.2577   -1.9650   -0.9032 O.3       1 <0>        -0.2128
      3 C2          1.2330   -0.6240   -0.6789 C.ar      1 <0>         0.0821
      4 C3          0.2798   -0.0805    0.1697 C.ar      1 <0>        -0.1426
      5 C4          0.2543    1.2812    0.3983 C.ar      1 <0>        -0.1206
      6 C5          1.1832    2.1063   -0.2215 C.ar      1 <0>         0.0336
      7 C6          2.1374    1.5615   -1.0706 C.ar      1 <0>        -0.0810
      8 C7          2.1613    0.1997   -1.2985 C.ar      1 <0>        -0.2083
      9 N1          1.1584    3.4874    0.0102 N.pl3     1 <0>        -0.2599
     10 C8          2.3417    4.1927    0.1069 C.ar      1 <0>         0.2778
     11 N2          2.3199    5.5195    0.2150 N.ar      1 <0>        -0.3425
     12 C9          3.4516    6.1951    0.3081 C.ar      1 <0>         0.1702
     13 N3          4.6092    5.5574    0.2943 N.ar      1 <0>        -0.3443
     14 C10         4.6391    4.2311    0.1865 C.ar      1 <0>         0.2781
     15 N4          3.5031    3.5478    0.0977 N.ar      1 <0>        -0.3693
     16 N5          5.8483    3.5663    0.1717 N.pl3     1 <0>        -0.3648
     17 C11         3.4223    7.6969    0.4298 C.3       1 <0>        -0.2129
     18 S1          3.3538    8.1593    2.1784 S.3       1 <0>         0.3069
     19 C12         3.3297    9.9149    2.0300 C.ar      1 <0>        -0.0717
     20 N6          3.3680   10.4629    0.8237 N.ar      1 <0>        -0.2343
     21 C13         3.3458   11.7772    0.6773 C.ar      1 <0>         0.0069
     22 C14         3.2932   12.5824    1.8045 C.ar      1 <0>        -0.2689
     23 C15         3.2599   11.9767    3.0509 C.ar      1 <0>         0.0066
     24 N7          3.2792   10.6565    3.1275 N.ar      1 <0>        -0.1919
     25 H1          3.2505   -2.2074   -1.3915 H         1 <0>         0.0674
     26 H2          2.1741   -3.5385   -1.8793 H         1 <0>         0.1074
     27 H3          2.1435   -1.9974   -2.7694 H         1 <0>         0.0673
     28 H4         -0.4429   -0.7224    0.6515 H         1 <0>         0.1460
     29 H5         -0.4907    1.7047    1.0556 H         1 <0>         0.1370
     30 H6          2.8602    2.2027   -1.5530 H         1 <0>         0.1531
     31 H7          2.9031   -0.2241   -1.9591 H         1 <0>         0.1363
     32 H8          0.3100    3.9484    0.1027 H         1 <0>         0.2590
     33 H9          6.6771    4.0655    0.2400 H         1 <0>         0.2438
     34 H10         5.8694    2.5997    0.0931 H         1 <0>         0.2413
     35 H11         4.3217    8.1156   -0.0217 H         1 <0>         0.1426
     36 H12         2.5431    8.0860   -0.0836 H         1 <0>         0.1425
     37 H13         3.3728   12.2179   -0.3083 H         1 <0>         0.1669
     38 H14         3.2781   13.6585    1.7135 H         1 <0>         0.1461
     39 H15         3.2183   12.5757    3.9487 H         1 <0>         0.1695
@<TRIPOS>BOND
     1    1    2 1
     2    1   25 1
     3    1   26 1
     4    1   27 1
     5    2    3 1
     6    3    8 ar
     7    3    4 ar
     8    4    5 ar
     9    4   28 1
    10    5    6 ar
    11    5   29 1
    12    6    7 ar
    13    6    9 1
    14    7    8 ar
    15    7   30 1
    16    8   31 1
    17    9   10 1
    18    9   32 1
    19   10   15 ar
    20   10   11 ar
    21   11   12 ar
    22   12   13 ar
    23   12   17 1
    24   13   14 ar
    25   14   15 ar
    26   14   16 1
    27   16   33 1
    28   16   34 1
    29   17   18 1
    30   17   35 1
    31   17   36 1
    32   18   19 1
    33   19   24 ar
    34   19   20 ar
    35   20   21 ar
    36   21   22 ar
    37   21   37 1
    38   22   23 ar
    39   22   38 1
    40   23   24 ar
    41   23   39 1
@<TRIPOS>MOLECULE
ZINC00536828
   42    45     0     0     0
SMALL
USER_CHARGES

@<TRIPOS>ATOM
      1 C1         -0.0187    1.5258    0.0104 C.3       1 <0>        -0.2119
      2 C2          0.0021   -0.0041    0.0020 C.3       1 <0>        -0.0163
      3 O1          0.6709   -0.4649   -1.1737 O.3       1 <0>        -0.2125
      4 C3          0.7767   -1.8099   -1.3361 C.ar      1 <0>         0.1100
      5 C4          0.2515   -2.6667   -0.3785 C.ar      1 <0>        -0.2281
      6 C5          0.3532   -4.0324   -0.5431 C.ar      1 <0>        -0.0644
      7 C6          0.9932   -4.5516   -1.6668 C.ar      1 <0>        -0.0526
      8 C7          1.5242   -3.6889   -2.6238 C.ar      1 <0>        -0.0599
      9 C8          1.4149   -2.3243   -2.4565 C.ar      1 <0>        -0.1650
     10 C9          1.1096   -6.0205   -1.8437 C.2       1 <0>         0.0118
     11 C10         1.2946   -6.9597   -0.8247 C.2       1 <0>        -0.2605
     12 C11         1.3481   -8.1980   -1.3960 C.2       1 <0>         0.1028
     13 N1          1.2114   -8.0412   -2.7291 N.pl3     1 <0>        -0.1735
     14 H1          1.2154   -8.7730   -3.4106 H         1 <0>         0.2880
     15 N2          1.0626   -6.6704   -2.9912 N.2       1 <0>        -0.0602
     16 O2          1.5150   -9.3323   -0.6711 O.3       1 <0>        -0.1374
     17 C12         1.3635   -9.2488    0.6648 C.2       1 <0>         0.2681
     18 C13         1.3061   -8.0820    1.3444 C.2       1 <0>        -0.2581
     19 C14         1.4208   -6.7421    0.6610 C.3       1 <0>         0.1250
     20 H2          0.6230   -6.0841    1.0055 H         1 <0>         0.1119
     21 C15         2.7595   -6.1243    0.9726 C.2       1 <0>        -0.1640
     22 C16         2.9867   -4.8785    1.6012 C.2       1 <0>        -0.2071
     23 C17         4.3201   -4.7201    1.6818 C.2       1 <0>        -0.1020
     24 O3          4.9091   -5.7978    1.1385 O.3       1 <0>        -0.0558
     25 C18         3.9676   -6.6550    0.7112 C.2       1 <0>        -0.0833
     26 C19         1.1295   -8.1190    2.7650 C.1       1 <0>        -0.0616
     27 N3          0.9895   -8.1483    3.8920 N.1       1 <0>        -0.0750
     28 N4          1.2537  -10.4175    1.3765 N.pl3     1 <0>        -0.3896
     29 H3          1.0039    1.9031    0.0027 H         1 <0>         0.0886
     30 H4         -0.5459    1.8868   -0.8726 H         1 <0>         0.0889
     31 H5         -0.5289    1.8773    0.9072 H         1 <0>         0.0867
     32 H6          0.5293   -0.3651    0.8851 H         1 <0>         0.0743
     33 H7         -1.0205   -0.3814    0.0098 H         1 <0>         0.0753
     34 H8         -0.2408   -2.2637    0.4941 H         1 <0>         0.1369
     35 H9         -0.0596   -4.6986    0.2000 H         1 <0>         0.1392
     36 H10         2.0211   -4.0886   -3.4954 H         1 <0>         0.1472
     37 H11         1.8265   -1.6552   -3.1977 H         1 <0>         0.1463
     38 H12         2.2341   -4.1865    1.9493 H         1 <0>         0.1544
     39 H13         4.8303   -3.8705    2.1111 H         1 <0>         0.1963
     40 H14         4.1496   -7.6077    0.2362 H         1 <0>         0.1968
     41 H15         1.1386  -10.3901    2.3393 H         1 <0>         0.2616
     42 H16         1.2912  -11.2708    0.9166 H         1 <0>         0.2285
@<TRIPOS>BOND
     1    1    2 1
     2    1   29 1
     3    1   30 1
     4    1   31 1
     5    2    3 1
     6    2   32 1
     7    2   33 1
     8    3    4 1
     9    4    9 ar
    10    4    5 ar
    11    5    6 ar
    12    5   34 1
    13    6    7 ar
    14    6   35 1
    15    7    8 ar
    16    7   10 1
    17    8    9 ar
    18    8   36 1
    19    9   37 1
    20   10   15 2
    21   10   11 1
    22   11   19 1
    23   11   12 2
    24   12   13 1
    25   12   16 1
    26   13   14 1
    27   13   15 1
    28   16   17 1
    29   17   18 2
    30   17   28 1
    31   18   19 1
    32   18   26 1
    33   19   20 1
    34   19   21 1
    35   21   25 2
    36   21   22 1
    37   22   23 2
    38   22   38 1
    39   23   24 1
    40   23   39 1
    41   24   25 1
    42   25   40 1
    43   26   27 3
    44   28   41 1
    45   28   42 1
@<TRIPOS>MOLECULE
ZINC00536829
   42    45     0     0     0
SMALL
USER_CHARGES

@<TRIPOS>ATOM
      1 C1         -2.4926   -2.0455    0.1069 C.3       1 <0>        -0.2119
      2 C2         -1.3024   -1.1716   -0.2939 C.3       1 <0>        -0.0162
      3 O1         -0.5717   -0.7965    0.8755 O.3       1 <0>        -0.2126
      4 C3          0.5239   -0.0134    0.6937 C.ar      1 <0>         0.1095
      5 C4          1.2785    0.3870    1.7879 C.ar      1 <0>        -0.1643
      6 C5          2.3910    1.1817    1.6064 C.ar      1 <0>        -0.0599
      7 C6          2.7572    1.5828    0.3230 C.ar      1 <0>        -0.0523
      8 C7          1.9980    1.1789   -0.7735 C.ar      1 <0>        -0.0638
      9 C8          0.8865    0.3842   -0.5859 C.ar      1 <0>        -0.2271
     10 C9          3.9538    2.4380    0.1244 C.2       1 <0>         0.0104
     11 C10         4.0495    3.5300   -0.7434 C.2       1 <0>        -0.2607
     12 C11         5.3079    4.0472   -0.6344 C.2       1 <0>         0.1018
     13 N1          5.9790    3.3064    0.2719 N.pl3     1 <0>        -0.1740
     14 H1          6.9265    3.4459    0.5596 H         1 <0>         0.2881
     15 N2          5.1135    2.3056    0.7399 N.2       1 <0>        -0.0585
     16 O2          5.7229    5.1211   -1.3519 O.3       1 <0>        -0.1375
     17 C12         4.9555    5.5138   -2.3889 C.2       1 <0>         0.2675
     18 C13         3.6917    5.0816   -2.5952 C.2       1 <0>        -0.2563
     19 C14         3.0091    4.1073   -1.6679 C.3       1 <0>         0.1258
     20 H2          2.5488    3.3078   -2.2485 H         1 <0>         0.1118
     21 C15         1.9554    4.8239   -0.8633 C.2       1 <0>        -0.1635
     22 C16         0.5626    4.5833   -0.8948 C.2       1 <0>        -0.2066
     23 C17        -0.0009    5.4415   -0.0257 C.2       1 <0>        -0.1025
     24 O3          0.9713    6.1849    0.5274 O.3       1 <0>        -0.0561
     25 C18         2.1603    5.8114    0.0269 C.2       1 <0>        -0.0840
     26 C19         2.9742    5.5668   -3.7356 C.1       1 <0>        -0.0613
     27 N3          2.4051    5.9517   -4.6403 N.1       1 <0>        -0.0754
     28 N4          5.4888    6.4046   -3.2868 N.pl3     1 <0>        -0.3895
     29 H3         -2.1318   -2.9410    0.6127 H         1 <0>         0.0889
     30 H4         -3.1440   -1.4863    0.7785 H         1 <0>         0.0886
     31 H5         -3.0499   -2.3316   -0.7851 H         1 <0>         0.0867
     32 H6         -1.6631   -0.2760   -0.7997 H         1 <0>         0.0745
     33 H7         -0.6509   -1.7307   -0.9655 H         1 <0>         0.0752
     34 H8          0.9917    0.0795    2.7827 H         1 <0>         0.1463
     35 H9          2.9776    1.4932    2.4580 H         1 <0>         0.1462
     36 H10         2.2799    1.4877   -1.7693 H         1 <0>         0.1377
     37 H11         0.2979    0.0706   -1.4354 H         1 <0>         0.1371
     38 H12         0.0494    3.8513   -1.5009 H         1 <0>         0.1549
     39 H13        -1.0562    5.5197    0.1904 H         1 <0>         0.1963
     40 H14         3.1181    6.2338    0.2923 H         1 <0>         0.1969
     41 H15         4.9610    6.7059   -4.0429 H         1 <0>         0.2615
     42 H16         6.3935    6.7328   -3.1654 H         1 <0>         0.2284
@<TRIPOS>BOND
     1    1    2 1
     2    1   29 1
     3    1   30 1
     4    1   31 1
     5    2    3 1
     6    2   32 1
     7    2   33 1
     8    3    4 1
     9    4    9 ar
    10    4    5 ar
    11    5    6 ar
    12    5   34 1
    13    6    7 ar
    14    6   35 1
    15    7    8 ar
    16    7   10 1
    17    8    9 ar
    18    8   36 1
    19    9   37 1
    20   10   15 2
    21   10   11 1
    22   11   19 1
    23   11   12 2
    24   12   13 1
    25   12   16 1
    26   13   14 1
    27   13   15 1
    28   16   17 1
    29   17   18 2
    30   17   28 1
    31   18   19 1
    32   18   26 1
    33   19   20 1
    34   19   21 1
    35   21   25 2
    36   21   22 1
    37   22   23 2
    38   22   38 1
    39   23   24 1
    40   23   39 1
    41   24   25 1
    42   25   40 1
    43   26   27 3
    44   28   41 1
    45   28   42 1
@<TRIPOS>MOLECULE
ZINC00536909
   40    42     0     0     0
SMALL
USER_CHARGES

@<TRIPOS>ATOM
      1 C1          3.4987   11.1429   -3.1250 C.3       1 <0>        -0.0677
      2 N1          3.4407   11.2003   -1.6622 N.pl3     1 <0>        -0.1604
      3 C2          3.3895   12.3219   -0.8813 C.2       1 <0>        -0.1330
      4 N2          3.3541   11.9286    0.3604 N.2       1 <0>        -0.0820
      5 N3          3.3738   10.6447    0.4173 N.2       1 <0>        -0.1067
      6 C3          3.4232   10.1453   -0.7958 C.2       1 <0>        -0.2166
      7 S1          3.4664    8.4367   -1.2244 S.3       1 <0>         0.2590
      8 C4          3.4223    7.6972    0.4270 C.3       1 <0>        -0.1952
      9 C5          3.4515    6.1954    0.3058 C.ar      1 <0>         0.1688
     10 N4          4.6092    5.5577    0.2920 N.ar      1 <0>        -0.3430
     11 C6          4.6391    4.2313    0.1851 C.ar      1 <0>         0.2780
     12 N5          3.5033    3.5483    0.0922 N.ar      1 <0>        -0.3691
     13 C7          2.3416    4.1928    0.1065 C.ar      1 <0>         0.2773
     14 N6          2.3200    5.5200    0.2086 N.ar      1 <0>        -0.3414
     15 N7          1.1584    3.4874    0.0097 N.pl3     1 <0>        -0.2573
     16 C8          1.1756    2.0869    0.0128 C.ar      1 <0>         0.0338
     17 C9          2.1324    1.4057    0.7536 C.ar      1 <0>        -0.0872
     18 C10         2.1488    0.0248    0.7561 C.ar      1 <0>        -0.1453
     19 C11         1.2095   -0.6817    0.0193 C.ar      1 <0>         0.0809
     20 C12         0.2535   -0.0018   -0.7210 C.ar      1 <0>        -0.2040
     21 C13         0.2361    1.3790   -0.7249 C.ar      1 <0>        -0.1215
     22 O1          1.2263   -2.0414    0.0223 O.3       1 <0>        -0.2126
     23 C14         0.2300   -2.7042   -0.7587 C.3       1 <0>        -0.0626
     24 N8          5.8483    3.5664    0.1711 N.pl3     1 <0>        -0.3637
     25 H1          2.4863   11.1127   -3.5278 H         1 <0>         0.0962
     26 H2          4.0141   12.0257   -3.5031 H         1 <0>         0.0983
     27 H3          4.0388   10.2474   -3.4323 H         1 <0>         0.1075
     28 H4          3.3840   13.3443   -1.2292 H         1 <0>         0.2100
     29 H5          2.5091    8.0028    0.9377 H         1 <0>         0.1475
     30 H6          4.2878    8.0325    0.9985 H         1 <0>         0.1474
     31 H7          0.3152    3.9619   -0.0604 H         1 <0>         0.2589
     32 H8          2.8607    1.9556    1.3311 H         1 <0>         0.1621
     33 H9          2.8928   -0.5052    1.3322 H         1 <0>         0.1452
     34 H10        -0.4772   -0.5526   -1.2947 H         1 <0>         0.1371
     35 H11        -0.5081    1.9082   -1.3015 H         1 <0>         0.1323
     36 H12        -0.7599   -2.4228   -0.3996 H         1 <0>         0.0672
     37 H13         0.3339   -2.4123   -1.8038 H         1 <0>         0.0675
     38 H14         0.3560   -3.7832   -0.6686 H         1 <0>         0.1076
     39 H15         5.8694    2.5998    0.0935 H         1 <0>         0.2425
     40 H16         6.6771    4.0657    0.2390 H         1 <0>         0.2444
@<TRIPOS>BOND
     1    1    2 1
     2    1   25 1
     3    1   26 1
     4    1   27 1
     5    2    6 1
     6    2    3 1
     7    3    4 2
     8    3   28 1
     9    4    5 1
    10    5    6 2
    11    6    7 1
    12    7    8 1
    13    8    9 1
    14    8   29 1
    15    8   30 1
    16    9   14 ar
    17    9   10 ar
    18   10   11 ar
    19   11   12 ar
    20   11   24 1
    21   12   13 ar
    22   13   14 ar
    23   13   15 1
    24   15   16 1
    25   15   31 1
    26   16   21 ar
    27   16   17 ar
    28   17   18 ar
    29   17   32 1
    30   18   19 ar
    31   18   33 1
    32   19   20 ar
    33   19   22 1
    34   20   21 ar
    35   20   34 1
    36   21   35 1
    37   22   23 1
    38   23   36 1
    39   23   37 1
    40   23   38 1
    41   24   39 1
    42   24   40 1
@<TRIPOS>MOLECULE
ZINC00537288
   42    45     0     0     0
SMALL
USER_CHARGES

@<TRIPOS>ATOM
      1 C1          0.1749   -4.2211   -0.0237 C.3       1 <0>        -0.2117
      2 C2         -0.0411   -2.7065   -0.0130 C.3       1 <0>        -0.0154
      3 O1          1.2254   -2.0446   -0.0215 O.3       1 <0>        -0.2121
      4 C3          1.2114   -0.6857   -0.0136 C.ar      1 <0>         0.0969
      5 C4          0.0021   -0.0041    0.0020 C.ar      1 <0>        -0.2120
      6 C5         -0.0167    1.3778    0.0096 C.ar      1 <0>        -0.0926
      7 C6          1.1673    2.0881    0.0021 C.ar      1 <0>        -0.1478
      8 C7          2.3852    1.4115   -0.0135 C.ar      1 <0>         0.0244
      9 C8          2.4037    0.0191   -0.0217 C.ar      1 <0>        -0.1282
     10 C9          3.6594    2.1728   -0.0226 C.2       1 <0>         0.0051
     11 C10         3.8854    3.3905   -0.6711 C.2       1 <0>        -0.2645
     12 C11         5.1776    3.7614   -0.4353 C.2       1 <0>         0.1166
     13 N1          5.7468    2.8040    0.3263 N.pl3     1 <0>        -0.1711
     14 H1          6.6911    2.7986    0.6554 H         1 <0>         0.2897
     15 N2          4.7805    1.8170    0.5753 N.2       1 <0>        -0.0518
     16 O2          5.7114    4.9080   -0.9253 O.3       1 <0>        -0.1330
     17 C12         4.8626    5.8278   -1.4273 C.2       1 <0>         0.2830
     18 C13         3.5645    5.5785   -1.7093 C.2       1 <0>        -0.2668
     19 C14         2.9350    4.2255   -1.4897 C.3       1 <0>         0.1415
     20 H2          1.9903    4.3412   -0.9584 H         1 <0>         0.1269
     21 C15         2.6925    3.5559   -2.8178 C.2       1 <0>        -0.0455
     22 C16         1.4970    3.1661   -3.2956 C.2       1 <0>        -0.2063
     23 C17         1.7316    2.5889   -4.5648 C.2       1 <0>        -0.2172
     24 C18         3.0564    2.6605   -4.7866 C.2       1 <0>        -0.1032
     25 O3          3.6326    3.2523   -3.7276 O.3       1 <0>        -0.0477
     26 C19         2.7571    6.6378   -2.2354 C.1       1 <0>        -0.0635
     27 N3          2.1167    7.4781   -2.6527 N.1       1 <0>        -0.0724
     28 N4          5.3451    7.0905   -1.6662 N.pl3     1 <0>        -0.3867
     29 H3          0.7435   -4.5133    0.8591 H         1 <0>         0.0888
     30 H4         -0.7911   -4.7260   -0.0172 H         1 <0>         0.0859
     31 H5          0.7262   -4.5032   -0.9207 H         1 <0>         0.0889
     32 H6         -0.5924   -2.4244    0.8840 H         1 <0>         0.0739
     33 H7         -0.6097   -2.4143   -0.8958 H         1 <0>         0.0744
     34 H8         -0.9267   -0.5552    0.0079 H         1 <0>         0.1351
     35 H9         -0.9600    1.9036    0.0169 H         1 <0>         0.1325
     36 H10         1.1494    3.1679    0.0077 H         1 <0>         0.1358
     37 H11         3.3453   -0.5098   -0.0346 H         1 <0>         0.1568
     38 H12         0.5413    3.2739   -2.8044 H         1 <0>         0.1542
     39 H13         0.9896    2.1704   -5.2286 H         1 <0>         0.1529
     40 H14         3.5691    2.3067   -5.6689 H         1 <0>         0.1947
     41 H15         6.2726    7.2997   -1.4742 H         1 <0>         0.2294
     42 H16         4.7585    7.7736   -2.0270 H         1 <0>         0.2621
@<TRIPOS>BOND
     1    1    2 1
     2    1   29 1
     3    1   30 1
     4    1   31 1
     5    2    3 1
     6    2   32 1
     7    2   33 1
     8    3    4 1
     9    4    9 ar
    10    4    5 ar
    11    5    6 ar
    12    5   34 1
    13    6    7 ar
    14    6   35 1
    15    7    8 ar
    16    7   36 1
    17    8    9 ar
    18    8   10 1
    19    9   37 1
    20   10   15 2
    21   10   11 1
    22   11   19 1
    23   11   12 2
    24   12   13 1
    25   12   16 1
    26   13   14 1
    27   13   15 1
    28   16   17 1
    29   17   18 2
    30   17   28 1
    31   18   19 1
    32   18   26 1
    33   19   20 1
    34   19   21 1
    35   21   25 1
    36   21   22 2
    37   22   23 1
    38   22   38 1
    39   23   24 2
    40   23   39 1
    41   24   25 1
    42   24   40 1
    43   26   27 3
    44   28   41 1
    45   28   42 1
@<TRIPOS>MOLECULE
ZINC00537312
   41    43     0     0     0
SMALL
USER_CHARGES

@<TRIPOS>ATOM
      1 C1          1.5130   -7.1339    0.4702 C.3       1 <0>        -0.2155
      2 C2          2.7864   -6.2859    0.4831 C.3       1 <0>        -0.0038
      3 O1          2.4335   -4.8812    0.3800 O.3       1 <0>        -0.2712
      4 C3          3.4480   -3.9942    0.3774 C.2       1 <0>         0.3543
      5 O2          4.5959   -4.3839    0.4592 O.2       1 <0>        -0.3666
      6 C4          3.1649   -2.5508    0.2755 C.ar      1 <0>        -0.1530
      7 C5          4.2159   -1.6288    0.2727 C.ar      1 <0>        -0.0312
      8 C6          3.9474   -0.2821    0.1768 C.ar      1 <0>        -0.1779
      9 C7          2.6330    0.1618    0.0825 C.ar      1 <0>         0.1092
     10 C8          1.5844   -0.7516    0.0907 C.ar      1 <0>        -0.2233
     11 C9          1.8447   -2.1003    0.1809 C.ar      1 <0>        -0.0421
     12 O3          2.3726    1.4897   -0.0122 O.3       1 <0>        -0.1190
     13 C10         1.0710    1.8889    0.0081 C.2       1 <0>        -0.1012
     14 C11         0.2807    2.0885   -1.0734 C.2       1 <0>        -0.0868
     15 N1         -0.9406    2.4855   -0.6282 N.pl3     1 <0>        -0.1868
     16 H1         -1.7290    2.7120   -1.2002 H         1 <0>         0.2911
     17 N2         -0.9023    2.5220    0.7714 N.2       1 <0>        -0.0444
     18 C12         0.3047    2.1680    1.1600 C.2       1 <0>        -0.0337
     19 C13         0.7769    2.0783    2.5632 C.ar      1 <0>        -0.0549
     20 C14         2.0846    1.6829    2.8363 C.ar      1 <0>        -0.0801
     21 C15         2.5227    1.6048    4.1418 C.ar      1 <0>        -0.1685
     22 C16         1.6603    1.9092    5.1870 C.ar      1 <0>         0.0955
     23 C17         0.3554    2.2984    4.9237 C.ar      1 <0>        -0.1904
     24 C18        -0.0910    2.3846    3.6159 C.ar      1 <0>         0.1138
     25 O4         -1.3691    2.7653    3.3562 O.3       1 <0>        -0.2737
     26 O5          2.0960    1.8249    6.4713 O.3       1 <0>        -0.2897
     27 H2          0.8821   -6.8549    1.3141 H         1 <0>         0.0853
     28 H3          0.9718   -6.9626   -0.4603 H         1 <0>         0.0854
     29 H4          1.7779   -8.1884    0.5477 H         1 <0>         0.0895
     30 H5          3.4173   -6.5650   -0.3608 H         1 <0>         0.0897
     31 H6          3.3276   -6.4572    1.4137 H         1 <0>         0.0895
     32 H7          5.2371   -1.9728    0.3452 H         1 <0>         0.1607
     33 H8          4.7588    0.4307    0.1746 H         1 <0>         0.1511
     34 H9          0.5647   -0.4026    0.0220 H         1 <0>         0.1485
     35 H10         1.0300   -2.8094    0.1824 H         1 <0>         0.1497
     36 H11         0.5706    1.9597   -2.1057 H         1 <0>         0.1828
     37 H12         2.7563    1.4416    2.0258 H         1 <0>         0.1575
     38 H13         3.5379    1.3022    4.3520 H         1 <0>         0.1455
     39 H14        -0.3126    2.5341    5.7389 H         1 <0>         0.1523
     40 H15        -1.9972    2.0313    3.3139 H         1 <0>         0.2328
     41 H16         1.9638    0.9564    6.8754 H         1 <0>         0.2298
@<TRIPOS>BOND
     1    1    2 1
     2    1   27 1
     3    1   28 1
     4    1   29 1
     5    2    3 1
     6    2   30 1
     7    2   31 1
     8    3    4 1
     9    4    5 2
    10    4    6 1
    11    6   11 ar
    12    6    7 ar
    13    7    8 ar
    14    7   32 1
    15    8    9 ar
    16    8   33 1
    17    9   10 ar
    18    9   12 1
    19   10   11 ar
    20   10   34 1
    21   11   35 1
    22   12   13 1
    23   13   18 1
    24   13   14 2
    25   14   15 1
    26   14   36 1
    27   15   16 1
    28   15   17 1
    29   17   18 2
    30   18   19 1
    31   19   24 ar
    32   19   20 ar
    33   20   21 ar
    34   20   37 1
    35   21   22 ar
    36   21   38 1
    37   22   23 ar
    38   22   26 1
    39   23   24 ar
    40   23   39 1
    41   24   25 1
    42   25   40 1
    43   26   41 1
@<TRIPOS>MOLECULE
ZINC00537312
   41    43     0     0     0
SMALL
USER_CHARGES

@<TRIPOS>ATOM
      1 C1          1.5130   -7.1339    0.4702 C.3       1 <0>        -0.2155
      2 C2          2.7864   -6.2859    0.4831 C.3       1 <0>        -0.0038
      3 O1          2.4335   -4.8812    0.3800 O.3       1 <0>        -0.2711
      4 C3          3.4480   -3.9942    0.3774 C.2       1 <0>         0.3543
      5 O2          4.5959   -4.3839    0.4592 O.2       1 <0>        -0.3670
      6 C4          3.1649   -2.5508    0.2755 C.ar      1 <0>        -0.1539
      7 C5          4.2159   -1.6288    0.2727 C.ar      1 <0>        -0.0316
      8 C6          3.9474   -0.2821    0.1768 C.ar      1 <0>        -0.1799
      9 C7          2.6330    0.1618    0.0825 C.ar      1 <0>         0.1075
     10 C8          1.5844   -0.7516    0.0907 C.ar      1 <0>        -0.2232
     11 C9          1.8447   -2.1003    0.1809 C.ar      1 <0>        -0.0424
     12 O3          2.3726    1.4897   -0.0122 O.3       1 <0>        -0.1189
     13 C10         1.0710    1.8889    0.0081 C.2       1 <0>        -0.1113
     14 C11         0.2808    2.0889   -1.0734 C.2       1 <0>        -0.1176
     15 N1         -0.9404    2.4862   -0.6282 N.2       1 <0>        -0.1037
     16 H1         -1.6610    2.7742    1.3721 H         1 <0>         0.3018
     17 N2         -0.9022    2.5224    0.7714 N.pl3     1 <0>        -0.1206
     18 C12         0.3047    2.1680    1.1600 C.2       1 <0>        -0.0042
     19 C13         0.7769    2.0783    2.5632 C.ar      1 <0>        -0.0693
     20 C14         2.0846    1.6829    2.8363 C.ar      1 <0>        -0.0725
     21 C15         2.5227    1.6048    4.1418 C.ar      1 <0>        -0.1578
     22 C16         1.6603    1.9092    5.1870 C.ar      1 <0>         0.0970
     23 C17         0.3554    2.2984    4.9237 C.ar      1 <0>        -0.1763
     24 C18        -0.0910    2.3846    3.6159 C.ar      1 <0>         0.0834
     25 O4         -1.3691    2.7653    3.3562 O.3       1 <0>        -0.2982
     26 O5          2.0960    1.8249    6.4713 O.3       1 <0>        -0.2870
     27 H2          0.8821   -6.8549    1.3141 H         1 <0>         0.0846
     28 H3          0.9718   -6.9626   -0.4603 H         1 <0>         0.0862
     29 H4          1.7779   -8.1884    0.5477 H         1 <0>         0.0895
     30 H5          3.4173   -6.5650   -0.3608 H         1 <0>         0.0903
     31 H6          3.3276   -6.4572    1.4137 H         1 <0>         0.0888
     32 H7          5.2371   -1.9728    0.3452 H         1 <0>         0.1604
     33 H8          4.7588    0.4307    0.1746 H         1 <0>         0.1505
     34 H9          0.5647   -0.4026    0.0220 H         1 <0>         0.1498
     35 H10         1.0300   -2.8094    0.1824 H         1 <0>         0.1497
     36 H11         0.5696    1.9564   -2.1056 H         1 <0>         0.1965
     37 H12         2.7563    1.4416    2.0258 H         1 <0>         0.1662
     38 H13         3.5379    1.3022    4.3520 H         1 <0>         0.1508
     39 H14        -0.3126    2.5341    5.7389 H         1 <0>         0.1551
     40 H15        -1.9972    2.0313    3.3139 H         1 <0>         0.2302
     41 H16         1.9638    0.9564    6.8754 H         1 <0>         0.2331
@<TRIPOS>BOND
     1    1    2 1
     2    1   27 1
     3    1   28 1
     4    1   29 1
     5    2    3 1
     6    2   30 1
     7    2   31 1
     8    3    4 1
     9    4    5 2
    10    4    6 1
    11    6   11 ar
    12    6    7 ar
    13    7    8 ar
    14    7   32 1
    15    8    9 ar
    16    8   33 1
    17    9   10 ar
    18    9   12 1
    19   10   11 ar
    20   10   34 1
    21   11   35 1
    22   12   13 1
    23   13   14 1
    24   13   18 2
    25   14   36 1
    26   14   15 2
    27   15   17 1
    28   16   17 1
    29   17   18 1
    30   18   19 1
    31   19   24 ar
    32   19   20 ar
    33   20   21 ar
    34   20   37 1
    35   21   22 ar
    36   21   38 1
    37   22   23 ar
    38   22   26 1
    39   23   24 ar
    40   23   39 1
    41   24   25 1
    42   25   40 1
    43   26   41 1
@<TRIPOS>MOLECULE
ZINC00537312
   41    43     0     0     0
SMALL
USER_CHARGES

@<TRIPOS>ATOM
      1 C1          1.5130   -7.1339    0.4702 C.3       1 <0>        -0.2155
      2 C2          2.7864   -6.2859    0.4831 C.3       1 <0>        -0.0038
      3 O1          2.4335   -4.8812    0.3800 O.3       1 <0>        -0.2711
      4 C3          3.4480   -3.9942    0.3774 C.2       1 <0>         0.3543
      5 O2          4.5959   -4.3839    0.4592 O.2       1 <0>        -0.3670
      6 C4          3.1649   -2.5508    0.2755 C.ar      1 <0>        -0.1539
      7 C5          4.2159   -1.6288    0.2727 C.ar      1 <0>        -0.0316
      8 C6          3.9474   -0.2821    0.1768 C.ar      1 <0>        -0.1799
      9 C7          2.6330    0.1618    0.0825 C.ar      1 <0>         0.1075
     10 C8          1.5844   -0.7516    0.0907 C.ar      1 <0>        -0.2232
     11 C9          1.8447   -2.1003    0.1809 C.ar      1 <0>        -0.0424
     12 O3          2.3726    1.4897   -0.0122 O.3       1 <0>        -0.1189
     13 C10         1.0710    1.8889    0.0081 C.2       1 <0>        -0.1113
     14 C11         0.2808    2.0889   -1.0734 C.2       1 <0>        -0.1176
     15 N1         -0.9404    2.4862   -0.6282 N.2       1 <0>        -0.1037
     16 H1         -1.6610    2.7742    1.3721 H         1 <0>         0.3018
     17 N2         -0.9022    2.5224    0.7714 N.pl3     1 <0>        -0.1206
     18 C12         0.3047    2.1680    1.1600 C.2       1 <0>        -0.0042
     19 C13         0.7769    2.0783    2.5632 C.ar      1 <0>        -0.0693
     20 C14         2.0846    1.6829    2.8363 C.ar      1 <0>        -0.0725
     21 C15         2.5227    1.6048    4.1418 C.ar      1 <0>        -0.1578
     22 C16         1.6603    1.9092    5.1870 C.ar      1 <0>         0.0970
     23 C17         0.3554    2.2984    4.9237 C.ar      1 <0>        -0.1763
     24 C18        -0.0910    2.3846    3.6159 C.ar      1 <0>         0.0834
     25 O4         -1.3691    2.7653    3.3562 O.3       1 <0>        -0.2982
     26 O5          2.0960    1.8249    6.4713 O.3       1 <0>        -0.2870
     27 H2          0.8821   -6.8549    1.3141 H         1 <0>         0.0846
     28 H3          0.9718   -6.9626   -0.4603 H         1 <0>         0.0862
     29 H4          1.7779   -8.1884    0.5477 H         1 <0>         0.0895
     30 H5          3.4173   -6.5650   -0.3608 H         1 <0>         0.0903
     31 H6          3.3276   -6.4572    1.4137 H         1 <0>         0.0888
     32 H7          5.2371   -1.9728    0.3452 H         1 <0>         0.1604
     33 H8          4.7588    0.4307    0.1746 H         1 <0>         0.1505
     34 H9          0.5647   -0.4026    0.0220 H         1 <0>         0.1498
     35 H10         1.0300   -2.8094    0.1824 H         1 <0>         0.1497
     36 H11         0.5696    1.9564   -2.1056 H         1 <0>         0.1965
     37 H12         2.7563    1.4416    2.0258 H         1 <0>         0.1662
     38 H13         3.5379    1.3022    4.3520 H         1 <0>         0.1508
     39 H14        -0.3126    2.5341    5.7389 H         1 <0>         0.1551
     40 H15        -1.9972    2.0313    3.3139 H         1 <0>         0.2302
     41 H16         1.9638    0.9564    6.8754 H         1 <0>         0.2331
@<TRIPOS>BOND
     1    1    2 1
     2    1   27 1
     3    1   28 1
     4    1   29 1
     5    2    3 1
     6    2   30 1
     7    2   31 1
     8    3    4 1
     9    4    5 2
    10    4    6 1
    11    6   11 ar
    12    6    7 ar
    13    7    8 ar
    14    7   32 1
    15    8    9 ar
    16    8   33 1
    17    9   10 ar
    18    9   12 1
    19   10   11 ar
    20   10   34 1
    21   11   35 1
    22   12   13 1
    23   13   14 1
    24   13   18 2
    25   14   36 1
    26   14   15 2
    27   15   17 1
    28   16   17 1
    29   17   18 1
    30   18   19 1
    31   19   24 ar
    32   19   20 ar
    33   20   21 ar
    34   20   37 1
    35   21   22 ar
    36   21   38 1
    37   22   23 ar
    38   22   26 1
    39   23   24 ar
    40   23   39 1
    41   24   25 1
    42   25   40 1
    43   26   41 1
@<TRIPOS>MOLECULE
ZINC00537429
   40    42     0     0     0
SMALL
USER_CHARGES

@<TRIPOS>ATOM
      1 C1         -2.4310    1.8403    0.0473 C.3       1 <0>        -0.0518
      2 N1         -1.0314    2.2725    0.0292 N.am      1 <0>        -0.2382
      3 C2         -0.0160    1.3298    0.0094 C.2       1 <0>         0.1308
      4 C3          1.3041    1.7672   -0.0009 C.2       1 <0>        -0.2769
      5 C4          1.5700    3.1479    0.0040 C.2       1 <0>         0.3888
      6 O1          2.7192    3.5537   -0.0052 O.2       1 <0>        -0.3755
      7 N2          0.5397    4.0186    0.0185 N.am      1 <0>        -0.2963
      8 C5         -0.7327    3.5854    0.0283 C.2       1 <0>         0.4097
      9 O2         -1.6362    4.3991    0.0417 O.2       1 <0>        -0.3808
     10 C6          0.8117    5.4581    0.0231 C.3       1 <0>        -0.0542
     11 N3          2.0941    0.6254   -0.0146 N.pl3     1 <0>        -0.1783
     12 H1          3.0935    0.5914   -0.0243 H         1 <0>         0.2686
     13 C7          1.2464   -0.4371   -0.0122 C.2       1 <0>         0.2031
     14 N4          0.0021   -0.0041    0.0020 N.2       1 <0>        -0.2550
     15 N5          1.6282   -1.7590   -0.0233 N.pl3     1 <0>        -0.3483
     16 C8          3.0503   -2.1106   -0.0393 C.3       1 <0>        -0.0398
     17 C9          3.1992   -3.6333   -0.0493 C.3       1 <0>         0.0776
     18 H2          2.7144   -4.0399   -0.9368 H         1 <0>         0.1363
     19 C10         4.6620   -3.9949   -0.0657 C.ar      1 <0>        -0.1224
     20 C11         5.3711   -4.0606    1.1191 C.ar      1 <0>        -0.1180
     21 C12         6.7119   -4.3967    1.1045 C.ar      1 <0>        -0.1201
     22 C13         7.3460   -4.6576   -0.0959 C.ar      1 <0>        -0.1177
     23 C14         6.6381   -4.5872   -1.2811 C.ar      1 <0>        -0.1215
     24 C15         5.2962   -4.2554   -1.2661 C.ar      1 <0>        -0.1135
     25 O3          2.5866   -4.1794    1.1205 O.3       1 <0>        -0.3356
     26 H3         -2.7632    1.7277    1.0793 H         1 <0>         0.0850
     27 H4         -3.0481    2.5862   -0.4536 H         1 <0>         0.1101
     28 H5         -2.5232    0.8855   -0.4703 H         1 <0>         0.1030
     29 H6          1.8889    5.6244    0.0134 H         1 <0>         0.1190
     30 H7          0.3656    5.9151   -0.8602 H         1 <0>         0.0929
     31 H8          0.3830    5.9060    0.9196 H         1 <0>         0.0931
     32 H9          0.9558   -2.4581   -0.0206 H         1 <0>         0.2715
     33 H10         3.5176   -1.6940   -0.9316 H         1 <0>         0.0912
     34 H11         3.5351   -1.7039    0.8483 H         1 <0>         0.0834
     35 H12         4.8767   -3.8528    2.0566 H         1 <0>         0.1249
     36 H13         7.2649   -4.4520    2.0305 H         1 <0>         0.1352
     37 H14         8.3943   -4.9168   -0.1076 H         1 <0>         0.1349
     38 H15         7.1334   -4.7910   -2.2189 H         1 <0>         0.1356
     39 H16         4.7432   -4.2000   -2.1921 H         1 <0>         0.1327
     40 H17         2.9686   -3.8608    1.9498 H         1 <0>         0.2164
@<TRIPOS>BOND
     1    1    2 1
     2    1   26 1
     3    1   27 1
     4    1   28 1
     5    2    8 am
     6    2    3 1
     7    3   14 1
     8    3    4 2
     9    4    5 1
    10    4   11 1
    11    5    6 2
    12    5    7 am
    13    7    8 am
    14    7   10 1
    15    8    9 2
    16   10   29 1
    17   10   30 1
    18   10   31 1
    19   11   12 1
    20   11   13 1
    21   13   14 2
    22   13   15 1
    23   15   16 1
    24   15   32 1
    25   16   17 1
    26   16   33 1
    27   16   34 1
    28   17   18 1
    29   17   19 1
    30   17   25 1
    31   19   24 ar
    32   19   20 ar
    33   20   21 ar
    34   20   35 1
    35   21   22 ar
    36   21   36 1
    37   22   23 ar
    38   22   37 1
    39   23   24 ar
    40   23   38 1
    41   24   39 1
    42   25   40 1
@<TRIPOS>MOLECULE
ZINC00537429
   41    43     0     0     0
SMALL
USER_CHARGES

@<TRIPOS>ATOM
      1 C1         -2.4310    1.8403    0.0473 C.3       1 <0>        -0.0707
      2 N1         -1.0314    2.2725    0.0292 N.am      1 <0>        -0.2432
      3 C2         -0.0160    1.3298    0.0094 C.2       1 <0>         0.1357
      4 C3          1.3041    1.7672   -0.0009 C.2       1 <0>        -0.1802
      5 C4          1.5700    3.1479    0.0040 C.2       1 <0>         0.3749
      6 O1          2.7192    3.5537   -0.0052 O.2       1 <0>        -0.3053
      7 N2          0.5397    4.0186    0.0185 N.am      1 <0>        -0.2838
      8 C5         -0.7327    3.5854    0.0283 C.2       1 <0>         0.4065
      9 O2         -1.6362    4.3991    0.0417 O.2       1 <0>        -0.3081
     10 C6          0.8117    5.4581    0.0231 C.3       1 <0>        -0.0609
     11 N3          2.0941    0.6254   -0.0146 N.pl3     1 <0>        -0.1296
     12 H1          3.0935    0.5914   -0.0243 H         1 <0>         0.3225
     13 C7          1.2464   -0.4371   -0.0122 C.cat     1 <0>         0.2642
     14 N4          1.6282   -1.7590   -0.0233 N.pl3     1 <0>        -0.3152
     15 C8          3.0503   -2.1106   -0.0393 C.3       1 <0>        -0.0605
     16 C9          3.1992   -3.6333   -0.0493 C.3       1 <0>         0.0850
     17 H2          2.7144   -4.0399   -0.9368 H         1 <0>         0.1415
     18 C10         4.6620   -3.9949   -0.0657 C.ar      1 <0>        -0.1444
     19 C11         5.3711   -4.0606    1.1191 C.ar      1 <0>        -0.1173
     20 C12         6.7119   -4.3967    1.1045 C.ar      1 <0>        -0.1124
     21 C13         7.3460   -4.6576   -0.0959 C.ar      1 <0>        -0.0999
     22 C14         6.6381   -4.5872   -1.2811 C.ar      1 <0>        -0.1136
     23 C15         5.2962   -4.2554   -1.2661 C.ar      1 <0>        -0.1104
     24 O3          2.5866   -4.1794    1.1205 O.3       1 <0>        -0.3345
     25 H3         -2.7632    1.7277    1.0793 H         1 <0>         0.1092
     26 H4         -3.0481    2.5862   -0.4536 H         1 <0>         0.1522
     27 H5         -2.5232    0.8855   -0.4703 H         1 <0>         0.0795
     28 H6          1.8889    5.6244    0.0134 H         1 <0>         0.1335
     29 H7          0.3656    5.9151   -0.8602 H         1 <0>         0.1127
     30 H8          0.3830    5.9060    0.9196 H         1 <0>         0.1129
     31 H9          0.9558   -2.4581   -0.0206 H         1 <0>         0.2815
     32 H10         3.5176   -1.6940   -0.9316 H         1 <0>         0.1128
     33 H11         3.5351   -1.7039    0.8483 H         1 <0>         0.1048
     34 H12         4.8767   -3.8528    2.0566 H         1 <0>         0.1216
     35 H13         7.2649   -4.4520    2.0305 H         1 <0>         0.1463
     36 H14         8.3943   -4.9168   -0.1076 H         1 <0>         0.1485
     37 H15         7.1334   -4.7910   -2.2189 H         1 <0>         0.1472
     38 H16         4.7432   -4.2000   -2.1921 H         1 <0>         0.1317
     39 H17         2.9686   -3.8608    1.9498 H         1 <0>         0.2234
     40 N5         -0.0004   -0.0059    0.0020 N.pl3     1 <0>        -0.1711
     41 H18        -0.8332   -0.6065    0.0067 H         1 <0>         0.3126
@<TRIPOS>BOND
     1    1    2 1
     2    1   25 1
     3    1   26 1
     4    1   27 1
     5    2    8 am
     6    2    3 1
     7    3    4 2
     8    3   40 1
     9    4    5 1
    10    4   11 1
    11    5    6 2
    12    5    7 am
    13    7    8 am
    14    7   10 1
    15    8    9 2
    16   10   28 1
    17   10   29 1
    18   10   30 1
    19   11   12 1
    20   11   13 1
    21   13   14 1
    22   13   40 2
    23   14   15 1
    24   14   31 1
    25   15   16 1
    26   15   32 1
    27   15   33 1
    28   16   17 1
    29   16   18 1
    30   16   24 1
    31   18   23 ar
    32   18   19 ar
    33   19   20 ar
    34   19   34 1
    35   20   21 ar
    36   20   35 1
    37   21   22 ar
    38   21   36 1
    39   22   23 ar
    40   22   37 1
    41   23   38 1
    42   24   39 1
    43   40   41 1
@<TRIPOS>MOLECULE
ZINC00537429
   40    42     0     0     0
SMALL
USER_CHARGES

@<TRIPOS>ATOM
      1 C1         -2.4310    1.8403    0.0487 C.3       1 <0>        -0.0589
      2 N1         -1.0314    2.2725    0.0303 N.am      1 <0>        -0.2531
      3 C2         -0.0160    1.3298    0.0101 C.2       1 <0>         0.0136
      4 C3          1.3041    1.7672   -0.0009 C.2       1 <0>        -0.1732
      5 C4          1.5700    3.1479    0.0047 C.2       1 <0>         0.3837
      6 O1          2.7192    3.5537   -0.0048 O.2       1 <0>        -0.3250
      7 N2          0.5397    4.0186    0.0196 N.am      1 <0>        -0.3013
      8 C5         -0.7327    3.5854    0.0296 C.2       1 <0>         0.4171
      9 O2         -1.6362    4.3991    0.0434 O.2       1 <0>        -0.3832
     10 C6          0.8117    5.4581    0.0244 C.3       1 <0>        -0.0550
     11 N3          2.0941    0.6254   -0.0146 N.2       1 <0>        -0.1407
     12 H1         -0.8090   -0.5890    0.0071 H         1 <0>         0.2472
     13 C7          1.2464   -0.4371   -0.0122 C.2       1 <0>         0.1180
     14 N4          0.0021   -0.0041    0.0024 N.pl3     1 <0>        -0.1693
     15 N5          1.6282   -1.7590   -0.0233 N.pl3     1 <0>        -0.3589
     16 C8          3.0503   -2.1106   -0.0393 C.3       1 <0>        -0.0114
     17 C9          3.1992   -3.6333   -0.0493 C.3       1 <0>         0.0672
     18 H2          2.7144   -4.0399   -0.9368 H         1 <0>         0.1282
     19 C10         4.6620   -3.9949   -0.0657 C.ar      1 <0>        -0.1150
     20 C11         5.3711   -4.0606    1.1191 C.ar      1 <0>        -0.1157
     21 C12         6.7119   -4.3967    1.1045 C.ar      1 <0>        -0.1204
     22 C13         7.3460   -4.6576   -0.0959 C.ar      1 <0>        -0.1194
     23 C14         6.6381   -4.5872   -1.2811 C.ar      1 <0>        -0.1222
     24 C15         5.2962   -4.2554   -1.2661 C.ar      1 <0>        -0.1129
     25 O3          2.5866   -4.1794    1.1205 O.3       1 <0>        -0.3463
     26 H3         -2.7629    1.7275    1.0808 H         1 <0>         0.0855
     27 H4         -3.0482    2.5863   -0.4519 H         1 <0>         0.1241
     28 H5         -2.5233    0.8856   -0.4691 H         1 <0>         0.0719
     29 H6          1.8889    5.6244    0.0145 H         1 <0>         0.1218
     30 H7          0.3654    5.9153   -0.8587 H         1 <0>         0.0920
     31 H8          0.3832    5.9058    0.9211 H         1 <0>         0.0921
     32 H9          0.9558   -2.4581   -0.0206 H         1 <0>         0.2393
     33 H10         3.5176   -1.6940   -0.9316 H         1 <0>         0.1075
     34 H11         3.5351   -1.7039    0.8483 H         1 <0>         0.0999
     35 H12         4.8767   -3.8528    2.0566 H         1 <0>         0.1245
     36 H13         7.2649   -4.4520    2.0305 H         1 <0>         0.1335
     37 H14         8.3943   -4.9168   -0.1076 H         1 <0>         0.1329
     38 H15         7.1334   -4.7910   -2.2189 H         1 <0>         0.1335
     39 H16         4.7432   -4.2000   -2.1921 H         1 <0>         0.1312
     40 H17         2.9686   -3.8608    1.9498 H         1 <0>         0.2169
@<TRIPOS>BOND
     1    1    2 1
     2    1   26 1
     3    1   27 1
     4    1   28 1
     5    2    8 am
     6    2    3 1
     7    3   14 1
     8    3    4 2
     9    4    5 1
    10    4   11 1
    11    5    6 2
    12    5    7 am
    13    7    8 am
    14    7   10 1
    15    8    9 2
    16   10   29 1
    17   10   30 1
    18   10   31 1
    19   11   13 2
    20   12   14 1
    21   13   15 1
    22   13   14 1
    23   15   16 1
    24   15   32 1
    25   16   17 1
    26   16   33 1
    27   16   34 1
    28   17   18 1
    29   17   19 1
    30   17   25 1
    31   19   24 ar
    32   19   20 ar
    33   20   21 ar
    34   20   35 1
    35   21   22 ar
    36   21   36 1
    37   22   23 ar
    38   22   37 1
    39   23   24 ar
    40   23   38 1
    41   24   39 1
    42   25   40 1
@<TRIPOS>MOLECULE
ZINC00537430
   40    42     0     0     0
SMALL
USER_CHARGES

@<TRIPOS>ATOM
      1 C1         -1.5762    4.8068    2.7125 C.3       1 <0>        -0.0517
      2 N1         -1.4523    3.3601    2.5180 N.am      1 <0>        -0.2382
      3 C2         -1.9755    2.4878    3.4591 C.2       1 <0>         0.1308
      4 C3         -1.8438    1.1192    3.2503 C.2       1 <0>        -0.2768
      5 C4         -1.1868    0.6611    2.0946 C.2       1 <0>         0.3888
      6 O1         -1.0595   -0.5338    1.8914 O.2       1 <0>        -0.3754
      7 N2         -0.6984    1.5583    1.2133 N.am      1 <0>        -0.2963
      8 C5         -0.8266    2.8791    1.4272 C.2       1 <0>         0.4097
      9 O2         -0.3695    3.6588    0.6136 O.2       1 <0>        -0.3809
     10 C6         -0.0127    1.0858    0.0080 C.3       1 <0>        -0.0541
     11 N3         -2.4495    0.4983    4.3345 N.pl3     1 <0>        -0.1783
     12 H1         -2.5279   -0.4863    4.4910 H         1 <0>         0.2686
     13 C7         -2.9153    1.4876    5.1420 C.2       1 <0>         0.2031
     14 N4         -2.6272    2.6583    4.6105 N.2       1 <0>        -0.2551
     15 N5         -3.5830    1.2962    6.3298 N.pl3     1 <0>        -0.3482
     16 C8         -3.8420   -0.0620    6.8139 C.3       1 <0>        -0.0393
     17 C9         -4.5933    0.0057    8.1451 C.3       1 <0>         0.0776
     18 H2         -4.0302    0.6181    8.8493 H         1 <0>         0.1358
     19 C10        -4.7517   -1.3850    8.7037 C.ar      1 <0>        -0.1224
     20 C11        -5.7519   -2.2115    8.2269 C.ar      1 <0>        -0.1190
     21 C12        -5.8945   -3.4887    8.7362 C.ar      1 <0>        -0.1204
     22 C13        -5.0427   -3.9361    9.7287 C.ar      1 <0>        -0.1174
     23 C14        -4.0459   -3.1077   10.2092 C.ar      1 <0>        -0.1217
     24 C15        -3.9005   -1.8321    9.6969 C.ar      1 <0>        -0.1117
     25 O3         -5.8828    0.5846    7.9354 O.3       1 <0>        -0.3348
     26 H3         -0.7121    5.1743    3.2661 H         1 <0>         0.0847
     27 H4         -1.6230    5.3011    1.7421 H         1 <0>         0.1101
     28 H5         -2.4855    5.0215    3.2738 H         1 <0>         0.1033
     29 H6          0.0021   -0.0041    0.0020 H         1 <0>         0.1190
     30 H7          1.0099    1.4631    0.0003 H         1 <0>         0.0931
     31 H8         -0.5399    1.4469   -0.8751 H         1 <0>         0.0928
     32 H9         -3.8823    2.0606    6.8465 H         1 <0>         0.2705
     33 H10        -4.4460   -0.5993    6.0828 H         1 <0>         0.0828
     34 H11        -2.8956   -0.5834    6.9569 H         1 <0>         0.0919
     35 H12        -6.4198   -1.8607    7.4540 H         1 <0>         0.1241
     36 H13        -6.6732   -4.1360    8.3605 H         1 <0>         0.1351
     37 H14        -5.1558   -4.9330   10.1285 H         1 <0>         0.1350
     38 H15        -3.3804   -3.4572   10.9847 H         1 <0>         0.1357
     39 H16        -3.1217   -1.1848   10.0723 H         1 <0>         0.1332
     40 H17        -6.4399    0.0909    7.3181 H         1 <0>         0.2159
@<TRIPOS>BOND
     1    1    2 1
     2    1   26 1
     3    1   27 1
     4    1   28 1
     5    2    8 am
     6    2    3 1
     7    3   14 1
     8    3    4 2
     9    4    5 1
    10    4   11 1
    11    5    6 2
    12    5    7 am
    13    7    8 am
    14    7   10 1
    15    8    9 2
    16   10   29 1
    17   10   30 1
    18   10   31 1
    19   11   12 1
    20   11   13 1
    21   13   14 2
    22   13   15 1
    23   15   16 1
    24   15   32 1
    25   16   17 1
    26   16   33 1
    27   16   34 1
    28   17   18 1
    29   17   19 1
    30   17   25 1
    31   19   24 ar
    32   19   20 ar
    33   20   21 ar
    34   20   35 1
    35   21   22 ar
    36   21   36 1
    37   22   23 ar
    38   22   37 1
    39   23   24 ar
    40   23   38 1
    41   24   39 1
    42   25   40 1
@<TRIPOS>MOLECULE
ZINC00537430
   41    43     0     0     0
SMALL
USER_CHARGES

@<TRIPOS>ATOM
      1 C1         -1.5762    4.8068    2.7125 C.3       1 <0>        -0.0706
      2 N1         -1.4523    3.3601    2.5180 N.am      1 <0>        -0.2431
      3 C2         -1.9755    2.4878    3.4591 C.2       1 <0>         0.1357
      4 C3         -1.8438    1.1192    3.2503 C.2       1 <0>        -0.1802
      5 C4         -1.1868    0.6611    2.0946 C.2       1 <0>         0.3749
      6 O1         -1.0595   -0.5338    1.8914 O.2       1 <0>        -0.3052
      7 N2         -0.6984    1.5583    1.2133 N.am      1 <0>        -0.2839
      8 C5         -0.8266    2.8791    1.4272 C.2       1 <0>         0.4065
      9 O2         -0.3695    3.6588    0.6136 O.2       1 <0>        -0.3081
     10 C6         -0.0127    1.0858    0.0080 C.3       1 <0>        -0.0609
     11 N3         -2.4495    0.4983    4.3345 N.pl3     1 <0>        -0.1295
     12 H1         -2.5279   -0.4863    4.4910 H         1 <0>         0.3225
     13 C7         -2.9153    1.4876    5.1420 C.cat     1 <0>         0.2643
     14 N4         -3.5830    1.2962    6.3298 N.pl3     1 <0>        -0.3151
     15 C8         -3.8420   -0.0620    6.8139 C.3       1 <0>        -0.0600
     16 C9         -4.5933    0.0057    8.1451 C.3       1 <0>         0.0851
     17 H2         -4.0302    0.6181    8.8493 H         1 <0>         0.1399
     18 C10        -4.7517   -1.3850    8.7037 C.ar      1 <0>        -0.1445
     19 C11        -5.7519   -2.2115    8.2269 C.ar      1 <0>        -0.1187
     20 C12        -5.8945   -3.4887    8.7362 C.ar      1 <0>        -0.1128
     21 C13        -5.0427   -3.9361    9.7287 C.ar      1 <0>        -0.0996
     22 C14        -4.0459   -3.1077   10.2092 C.ar      1 <0>        -0.1137
     23 C15        -3.9005   -1.8321    9.6969 C.ar      1 <0>        -0.1083
     24 O3         -5.8828    0.5846    7.9354 O.3       1 <0>        -0.3330
     25 H3         -0.7121    5.1743    3.2661 H         1 <0>         0.1089
     26 H4         -1.6230    5.3011    1.7421 H         1 <0>         0.1522
     27 H5         -2.4855    5.0215    3.2738 H         1 <0>         0.0799
     28 H6          0.0021   -0.0041    0.0020 H         1 <0>         0.1335
     29 H7          1.0099    1.4631    0.0003 H         1 <0>         0.1129
     30 H8         -0.5399    1.4469   -0.8751 H         1 <0>         0.1127
     31 H9         -3.8823    2.0606    6.8465 H         1 <0>         0.2805
     32 H10        -4.4460   -0.5993    6.0828 H         1 <0>         0.1041
     33 H11        -2.8956   -0.5834    6.9569 H         1 <0>         0.1135
     34 H12        -6.4198   -1.8607    7.4540 H         1 <0>         0.1206
     35 H13        -6.6732   -4.1360    8.3605 H         1 <0>         0.1461
     36 H14        -5.1558   -4.9330   10.1285 H         1 <0>         0.1485
     37 H15        -3.3804   -3.4572   10.9847 H         1 <0>         0.1473
     38 H16        -3.1217   -1.1848   10.0723 H         1 <0>         0.1323
     39 H17        -6.4399    0.0909    7.3181 H         1 <0>         0.2236
     40 N5         -2.6279    2.6610    4.6118 N.pl3     1 <0>        -0.1710
     41 H18        -2.8694    3.5703    5.0231 H         1 <0>         0.3125
@<TRIPOS>BOND
     1    1    2 1
     2    1   25 1
     3    1   26 1
     4    1   27 1
     5    2    8 am
     6    2    3 1
     7    3    4 2
     8    3   40 1
     9    4    5 1
    10    4   11 1
    11    5    6 2
    12    5    7 am
    13    7    8 am
    14    7   10 1
    15    8    9 2
    16   10   28 1
    17   10   29 1
    18   10   30 1
    19   11   12 1
    20   11   13 1
    21   13   14 1
    22   13   40 2
    23   14   15 1
    24   14   31 1
    25   15   16 1
    26   15   32 1
    27   15   33 1
    28   16   17 1
    29   16   18 1
    30   16   24 1
    31   18   23 ar
    32   18   19 ar
    33   19   20 ar
    34   19   34 1
    35   20   21 ar
    36   20   35 1
    37   21   22 ar
    38   21   36 1
    39   22   23 ar
    40   22   37 1
    41   23   38 1
    42   24   39 1
    43   40   41 1
@<TRIPOS>MOLECULE
ZINC00537430
   40    42     0     0     0
SMALL
USER_CHARGES

@<TRIPOS>ATOM
      1 C1         -1.5784    4.8068    2.7113 C.3       1 <0>        -0.0588
      2 N1         -1.4541    3.3601    2.5170 N.am      1 <0>        -0.2531
      3 C2         -1.9766    2.4878    3.4585 C.2       1 <0>         0.0136
      4 C3         -1.8438    1.1192    3.2503 C.2       1 <0>        -0.1732
      5 C4         -1.1878    0.6611    2.0940 C.2       1 <0>         0.3838
      6 O1         -1.0602   -0.5338    1.8910 O.2       1 <0>        -0.3250
      7 N2         -0.7001    1.5583    1.2123 N.am      1 <0>        -0.3013
      8 C5         -0.8287    2.8791    1.4260 C.2       1 <0>         0.4171
      9 O2         -0.3722    3.6588    0.6121 O.2       1 <0>        -0.3832
     10 C6         -0.0148    1.0858    0.0068 C.3       1 <0>        -0.0549
     11 N3         -2.4495    0.4983    4.3345 N.2       1 <0>        -0.1406
     12 H1         -2.8631    3.5439    5.0107 H         1 <0>         0.2471
     13 C7         -2.9153    1.4876    5.1420 C.2       1 <0>         0.1180
     14 N4         -2.6278    2.6583    4.6101 N.pl3     1 <0>        -0.1692
     15 N5         -3.5830    1.2962    6.3298 N.pl3     1 <0>        -0.3587
     16 C8         -3.8420   -0.0620    6.8139 C.3       1 <0>        -0.0109
     17 C9         -4.5933    0.0057    8.1451 C.3       1 <0>         0.0673
     18 H2         -4.0302    0.6181    8.8493 H         1 <0>         0.1273
     19 C10        -4.7517   -1.3850    8.7037 C.ar      1 <0>        -0.1150
     20 C11        -5.7519   -2.2115    8.2269 C.ar      1 <0>        -0.1160
     21 C12        -5.8945   -3.4887    8.7362 C.ar      1 <0>        -0.1203
     22 C13        -5.0427   -3.9361    9.7287 C.ar      1 <0>        -0.1192
     23 C14        -4.0459   -3.1077   10.2092 C.ar      1 <0>        -0.1226
     24 C15        -3.9005   -1.8321    9.6969 C.ar      1 <0>        -0.1121
     25 O3         -5.8828    0.5846    7.9354 O.3       1 <0>        -0.3453
     26 H3         -0.7142    5.1747    3.2644 H         1 <0>         0.0852
     27 H4         -1.6258    5.3009    1.7408 H         1 <0>         0.1240
     28 H5         -2.4875    5.0213    3.2729 H         1 <0>         0.0723
     29 H6          0.0004   -0.0041    0.0010 H         1 <0>         0.1218
     30 H7          1.0077    1.4634   -0.0014 H         1 <0>         0.0922
     31 H8         -0.5425    1.4465   -0.8761 H         1 <0>         0.0919
     32 H9         -3.8823    2.0606    6.8465 H         1 <0>         0.2382
     33 H10        -4.4460   -0.5993    6.0828 H         1 <0>         0.0992
     34 H11        -2.8956   -0.5834    6.9569 H         1 <0>         0.1082
     35 H12        -6.4198   -1.8607    7.4540 H         1 <0>         0.1245
     36 H13        -6.6732   -4.1360    8.3605 H         1 <0>         0.1337
     37 H14        -5.1558   -4.9330   10.1285 H         1 <0>         0.1329
     38 H15        -3.3804   -3.4572   10.9847 H         1 <0>         0.1334
     39 H16        -3.1217   -1.1848   10.0723 H         1 <0>         0.1310
     40 H17        -6.4399    0.0909    7.3181 H         1 <0>         0.2167
@<TRIPOS>BOND
     1    1    2 1
     2    1   26 1
     3    1   27 1
     4    1   28 1
     5    2    8 am
     6    2    3 1
     7    3   14 1
     8    3    4 2
     9    4    5 1
    10    4   11 1
    11    5    6 2
    12    5    7 am
    13    7    8 am
    14    7   10 1
    15    8    9 2
    16   10   29 1
    17   10   30 1
    18   10   31 1
    19   11   13 2
    20   12   14 1
    21   13   15 1
    22   13   14 1
    23   15   16 1
    24   15   32 1
    25   16   17 1
    26   16   33 1
    27   16   34 1
    28   17   18 1
    29   17   19 1
    30   17   25 1
    31   19   24 ar
    32   19   20 ar
    33   20   21 ar
    34   20   35 1
    35   21   22 ar
    36   21   36 1
    37   22   23 ar
    38   22   37 1
    39   23   24 ar
    40   23   38 1
    41   24   39 1
    42   25   40 1
@<TRIPOS>MOLECULE
ZINC00538061
   44    46     0     0     0
SMALL
USER_CHARGES

@<TRIPOS>ATOM
      1 C1          2.7031   -8.3898   -0.4231 C.3       1 <0>        -0.2448
      2 C2          2.6928   -6.8657   -0.2889 C.3       1 <0>         0.0225
      3 H1          3.1422   -6.4198   -1.1762 H         1 <0>         0.1228
      4 C3          1.2502   -6.3760   -0.1468 C.3       1 <0>        -0.0389
      5 N1          1.2304   -4.9112   -0.1383 N.am      1 <0>        -0.3833
      6 C4          0.0597   -4.2537   -0.0218 C.2       1 <0>         0.3441
      7 O1         -0.9800   -4.8763    0.0761 O.2       1 <0>        -0.3705
      8 C5          0.0397   -2.7768   -0.0132 C.ar      1 <0>        -0.1165
      9 C6         -1.1739   -2.0949    0.1075 C.ar      1 <0>        -0.0715
     10 C7         -1.1919   -0.7187    0.1150 C.ar      1 <0>        -0.1301
     11 C8          0.0021   -0.0041    0.0020 C.ar      1 <0>        -0.0052
     12 C9          1.2144   -0.6848   -0.1244 C.ar      1 <0>        -0.1029
     13 C10         1.2344   -2.0609   -0.1263 C.ar      1 <0>        -0.1081
     14 C11        -0.0180    1.4763    0.0102 C.2       1 <0>        -0.0163
     15 C12        -0.9040    2.1963    0.9367 C.ar      1 <0>        -0.0497
     16 C13        -1.7412    1.5229    1.8248 C.ar      1 <0>        -0.1266
     17 C14        -2.5527    2.2432    2.6735 C.ar      1 <0>        -0.1040
     18 C15        -2.5455    3.6318    2.6537 C.ar      1 <0>        -0.1303
     19 C16        -1.7263    4.3178    1.7844 C.ar      1 <0>        -0.0643
     20 C17        -0.8970    3.6082    0.9168 C.ar      1 <0>        -0.1121
     21 C18        -0.0029    4.2868   -0.0306 C.2       1 <0>         0.3221
     22 O2          0.0353    5.5030   -0.0822 O.2       1 <0>        -0.3574
     23 N2          0.7747    3.5421   -0.8427 N.am      1 <0>        -0.2437
     24 N3          0.7570    2.1476   -0.8038 N.2       1 <0>        -0.0163
     25 C19         1.6674    4.2165   -1.7886 C.3       1 <0>        -0.0400
     26 O3          3.4413   -6.4842    0.8671 O.3       1 <0>        -0.3493
     27 H2          2.1322   -8.6807   -1.3048 H         1 <0>         0.0866
     28 H3          3.7308   -8.7386   -0.5242 H         1 <0>         0.0940
     29 H4          2.2537   -8.8357    0.4643 H         1 <0>         0.0789
     30 H5          0.8296   -6.7505    0.7864 H         1 <0>         0.0944
     31 H6          0.6579   -6.7425   -0.9852 H         1 <0>         0.1012
     32 H7          2.0599   -4.4144   -0.2164 H         1 <0>         0.2322
     33 H8         -2.0977   -2.6476    0.1945 H         1 <0>         0.1611
     34 H9         -2.1299   -0.1915    0.2079 H         1 <0>         0.1476
     35 H10         2.1373   -0.1313   -0.2165 H         1 <0>         0.1493
     36 H11         2.1727   -2.5874   -0.2196 H         1 <0>         0.1333
     37 H12        -1.7538    0.4432    1.8472 H         1 <0>         0.1514
     38 H13        -3.2019    1.7223    3.3617 H         1 <0>         0.1362
     39 H14        -3.1890    4.1794    3.3264 H         1 <0>         0.1385
     40 H15        -1.7261    5.3978    1.7751 H         1 <0>         0.1601
     41 H16         2.6339    4.3900   -1.3154 H         1 <0>         0.0827
     42 H17         1.8018    3.5906   -2.6707 H         1 <0>         0.0958
     43 H18         1.2306    5.1707   -2.0832 H         1 <0>         0.1128
     44 H19         3.0974   -6.8459    1.6954 H         1 <0>         0.2143
@<TRIPOS>BOND
     1    1    2 1
     2    1   27 1
     3    1   28 1
     4    1   29 1
     5    2    3 1
     6    2    4 1
     7    2   26 1
     8    4    5 1
     9    4   30 1
    10    4   31 1
    11    5    6 am
    12    5   32 1
    13    6    7 2
    14    6    8 1
    15    8   13 ar
    16    8    9 ar
    17    9   10 ar
    18    9   33 1
    19   10   11 ar
    20   10   34 1
    21   11   12 ar
    22   11   14 1
    23   12   13 ar
    24   12   35 1
    25   13   36 1
    26   14   24 2
    27   14   15 1
    28   15   20 ar
    29   15   16 ar
    30   16   17 ar
    31   16   37 1
    32   17   18 ar
    33   17   38 1
    34   18   19 ar
    35   18   39 1
    36   19   20 ar
    37   19   40 1
    38   20   21 1
    39   21   22 2
    40   21   23 am
    41   23   24 1
    42   23   25 1
    43   25   41 1
    44   25   42 1
    45   25   43 1
    46   26   44 1
@<TRIPOS>MOLECULE
ZINC00538090
   43    45     0     0     0
SMALL
USER_CHARGES

@<TRIPOS>ATOM
      1 C1          4.8351    8.1443    0.0762 C.3       1 <0>        -0.1776
      2 C2          3.7440    7.2893    0.6673 C.ar      1 <0>        -0.0605
      3 C3          2.4347    7.4589    0.2578 C.ar      1 <0>        -0.1316
      4 C4          1.4338    6.6746    0.8000 C.ar      1 <0>        -0.1052
      5 C5          1.7424    5.7201    1.7511 C.ar      1 <0>        -0.1262
      6 C6          3.0511    5.5538    2.1641 C.ar      1 <0>        -0.1041
      7 C7          4.0526    6.3351    1.6187 C.ar      1 <0>        -0.1311
      8 C8          0.6513    4.8650    2.3422 C.3       1 <0>         0.0578
      9 N1          0.4884    3.6538    1.5343 N.pl3     1 <0>        -0.3493
     10 C9         -0.4564    2.7162    1.8830 C.2       1 <0>         0.2050
     11 N2         -1.2696    2.8023    2.9161 N.2       1 <0>        -0.2565
     12 C10        -2.0541    1.7247    2.9693 C.2       1 <0>         0.1301
     13 C11        -1.7171    0.9070    1.8961 C.2       1 <0>        -0.2784
     14 N3         -0.6984    1.5583    1.2133 N.pl3     1 <0>        -0.1400
     15 C12        -0.0127    1.0858    0.0080 C.3       1 <0>        -0.0126
     16 C13        -0.7527    1.5927   -1.2315 C.3       1 <0>        -0.0204
     17 O1         -0.0838    1.1318   -2.4072 O.3       1 <0>        -0.3518
     18 C14        -2.4017   -0.3080    1.7173 C.2       1 <0>         0.3878
     19 O2         -2.1228   -1.0405    0.7841 O.2       1 <0>        -0.3720
     20 N4         -3.3703   -0.6547    2.5900 N.am      1 <0>        -0.3363
     21 H1         -3.8591   -1.5182    2.4656 H         1 <0>         0.2821
     22 C15        -3.6883    0.1429    3.6242 C.2       1 <0>         0.4107
     23 O3         -4.5667   -0.2021    4.3911 O.2       1 <0>        -0.3852
     24 N5         -3.0579    1.3143    3.8319 N.am      1 <0>        -0.2382
     25 C16        -3.4339    2.1560    4.9705 C.3       1 <0>        -0.0552
     26 H2          4.9559    9.0459    0.6768 H         1 <0>         0.0904
     27 H3          5.7708    7.5852    0.0681 H         1 <0>         0.0844
     28 H4          4.5680    8.4204   -0.9439 H         1 <0>         0.0840
     29 H5          2.1936    8.2044   -0.4855 H         1 <0>         0.1346
     30 H6          0.4108    6.8073    0.4803 H         1 <0>         0.1345
     31 H7          3.2916    4.8110    2.9104 H         1 <0>         0.1358
     32 H8          5.0756    6.2024    1.9384 H         1 <0>         0.1351
     33 H9         -0.2842    5.4244    2.3509 H         1 <0>         0.0994
     34 H10         0.9187    4.5883    3.3620 H         1 <0>         0.1002
     35 H11         1.0465    3.5128    0.7536 H         1 <0>         0.2447
     36 H12         0.0021   -0.0041    0.0020 H         1 <0>         0.1477
     37 H13         1.0099    1.4631    0.0003 H         1 <0>         0.1013
     38 H14        -1.7753    1.2154   -1.2238 H         1 <0>         0.0869
     39 H15        -0.7675    2.6825   -1.2255 H         1 <0>         0.0582
     40 H16        -0.4991    1.4161   -3.2329 H         1 <0>         0.2206
     41 H17        -4.2348    1.6731    5.5305 H         1 <0>         0.1213
     42 H18        -2.5697    2.2960    5.6198 H         1 <0>         0.0902
     43 H19        -3.7771    3.1251    4.6083 H         1 <0>         0.0895
@<TRIPOS>BOND
     1    1    2 1
     2    1   26 1
     3    1   27 1
     4    1   28 1
     5    2    7 ar
     6    2    3 ar
     7    3    4 ar
     8    3   29 1
     9    4    5 ar
    10    4   30 1
    11    5    6 ar
    12    5    8 1
    13    6    7 ar
    14    6   31 1
    15    7   32 1
    16    8    9 1
    17    8   33 1
    18    8   34 1
    19    9   10 1
    20    9   35 1
    21   10   14 1
    22   10   11 2
    23   11   12 1
    24   12   24 1
    25   12   13 2
    26   13   14 1
    27   13   18 1
    28   14   15 1
    29   15   16 1
    30   15   36 1
    31   15   37 1
    32   16   17 1
    33   16   38 1
    34   16   39 1
    35   17   40 1
    36   18   19 2
    37   18   20 am
    38   20   21 1
    39   20   22 am
    40   22   23 2
    41   22   24 am
    42   24   25 1
    43   25   41 1
    44   25   42 1
    45   25   43 1
@<TRIPOS>MOLECULE
ZINC00538090
   44    46     0     0     0
SMALL
USER_CHARGES

@<TRIPOS>ATOM
      1 C1          4.8351    8.1443    0.0762 C.3       1 <0>        -0.1855
      2 C2          3.7440    7.2893    0.6673 C.ar      1 <0>        -0.0299
      3 C3          2.4347    7.4589    0.2578 C.ar      1 <0>        -0.1237
      4 C4          1.4338    6.6746    0.8000 C.ar      1 <0>        -0.0968
      5 C5          1.7424    5.7201    1.7511 C.ar      1 <0>        -0.1592
      6 C6          3.0511    5.5538    2.1641 C.ar      1 <0>        -0.0956
      7 C7          4.0526    6.3351    1.6187 C.ar      1 <0>        -0.1230
      8 C8          0.6513    4.8650    2.3422 C.3       1 <0>         0.0286
      9 N1          0.4884    3.6538    1.5343 N.pl3     1 <0>        -0.3155
     10 C9         -0.4564    2.7162    1.8830 C.cat     1 <0>         0.2573
     11 C10        -2.0541    1.7247    2.9693 C.2       1 <0>         0.1322
     12 C11        -1.7171    0.9070    1.8961 C.2       1 <0>        -0.1820
     13 N2         -0.6984    1.5583    1.2133 N.pl3     1 <0>        -0.0937
     14 C12        -0.0127    1.0858    0.0080 C.3       1 <0>        -0.0216
     15 C13        -0.7527    1.5927   -1.2315 C.3       1 <0>        -0.0162
     16 O1         -0.0838    1.1318   -2.4072 O.3       1 <0>        -0.3368
     17 C14        -2.4017   -0.3080    1.7173 C.2       1 <0>         0.3773
     18 O2         -2.1228   -1.0405    0.7841 O.2       1 <0>        -0.3020
     19 N3         -3.3703   -0.6547    2.5900 N.am      1 <0>        -0.3241
     20 H1         -3.8591   -1.5182    2.4656 H         1 <0>         0.3113
     21 C15        -3.6883    0.1429    3.6242 C.2       1 <0>         0.4102
     22 O3         -4.5667   -0.2021    4.3911 O.2       1 <0>        -0.3117
     23 N4         -3.0579    1.3143    3.8319 N.am      1 <0>        -0.2447
     24 C16        -3.4339    2.1560    4.9705 C.3       1 <0>        -0.0797
     25 H2          4.9559    9.0459    0.6768 H         1 <0>         0.1048
     26 H3          5.7708    7.5852    0.0681 H         1 <0>         0.0952
     27 H4          4.5680    8.4204   -0.9439 H         1 <0>         0.0947
     28 H5          2.1936    8.2044   -0.4855 H         1 <0>         0.1506
     29 H6          0.4108    6.8073    0.4803 H         1 <0>         0.1326
     30 H7          3.2916    4.8110    2.9104 H         1 <0>         0.1341
     31 H8          5.0756    6.2024    1.9384 H         1 <0>         0.1513
     32 H9         -0.2842    5.4244    2.3509 H         1 <0>         0.0980
     33 H10         0.9187    4.5883    3.3620 H         1 <0>         0.0991
     34 H11         1.0465    3.5128    0.7536 H         1 <0>         0.2815
     35 H12         0.0021   -0.0041    0.0020 H         1 <0>         0.1753
     36 H13         1.0099    1.4631    0.0003 H         1 <0>         0.1233
     37 H14        -1.7753    1.2154   -1.2238 H         1 <0>         0.0920
     38 H15        -0.7675    2.6825   -1.2255 H         1 <0>         0.0589
     39 H16        -0.4991    1.4161   -3.2329 H         1 <0>         0.2433
     40 H17        -4.2348    1.6731    5.5305 H         1 <0>         0.1635
     41 H18        -2.5697    2.2960    5.6198 H         1 <0>         0.0928
     42 H19        -3.7771    3.1251    4.6083 H         1 <0>         0.0920
     43 N5         -1.2697    2.8047    2.9181 N.pl3     1 <0>        -0.1686
     44 H20        -1.2957    3.5859    3.5839 H         1 <0>         0.3104
@<TRIPOS>BOND
     1    1    2 1
     2    1   25 1
     3    1   26 1
     4    1   27 1
     5    2    7 ar
     6    2    3 ar
     7    3    4 ar
     8    3   28 1
     9    4    5 ar
    10    4   29 1
    11    5    6 ar
    12    5    8 1
    13    6    7 ar
    14    6   30 1
    15    7   31 1
    16    8    9 1
    17    8   32 1
    18    8   33 1
    19    9   10 1
    20    9   34 1
    21   10   13 1
    22   10   43 2
    23   11   23 1
    24   11   12 2
    25   11   43 1
    26   12   13 1
    27   12   17 1
    28   13   14 1
    29   14   15 1
    30   14   35 1
    31   14   36 1
    32   15   16 1
    33   15   37 1
    34   15   38 1
    35   16   39 1
    36   17   18 2
    37   17   19 am
    38   19   20 1
    39   19   21 am
    40   21   22 2
    41   21   23 am
    42   23   24 1
    43   24   40 1
    44   24   41 1
    45   24   42 1
    46   43   44 1
@<TRIPOS>MOLECULE
ZINC00539173
   46    48     0     0     0
SMALL
USER_CHARGES

@<TRIPOS>ATOM
      1 C1          1.7524   -2.0028    6.0616 C.ar      1 <0>        -0.1502
      2 C2          0.9086   -2.7833    5.2929 C.ar      1 <0>        -0.1108
      3 C3          0.2239   -2.2241    4.2318 C.ar      1 <0>        -0.1704
      4 C4          0.3840   -0.8765    3.9369 C.ar      1 <0>         0.0619
      5 C5          1.2366   -0.0967    4.7073 C.ar      1 <0>        -0.1437
      6 C6          1.9139   -0.6607    5.7706 C.ar      1 <0>        -0.1112
      7 N1         -0.3078   -0.3070    2.8622 N.am      1 <0>        -0.3112
      8 C7          0.1609    0.8127    2.2764 C.2       1 <0>         0.3142
      9 O1          1.0948    1.4094    2.7691 O.2       1 <0>        -0.3472
     10 C8         -0.4755    1.3232    1.0094 C.3       1 <0>         0.0757
     11 C9          0.2777    0.7657   -0.2001 C.3       1 <0>        -0.1622
     12 C10        -0.3684    1.2841   -1.4865 C.3       1 <0>        -0.1581
     13 C11        -0.3073    2.8127   -1.5078 C.3       1 <0>        -0.1622
     14 C12        -1.0604    3.3702   -0.2984 C.3       1 <0>        -0.1587
     15 C13        -0.4143    2.8519    0.9880 C.3       1 <0>        -0.1621
     16 N2         -1.8739    0.8897    0.9562 N.am      1 <0>        -0.3934
     17 C14        -2.7197    1.2184    1.9527 C.2       1 <0>         0.3406
     18 O2         -2.3474    1.9495    2.8495 O.2       1 <0>        -0.3467
     19 C15        -4.1005    0.6898    1.9549 C.ar      1 <0>        -0.1793
     20 C16        -4.9880    1.0239    2.9841 C.ar      1 <0>        -0.0597
     21 C17        -6.2735    0.5012    2.9386 C.ar      1 <0>         0.0075
     22 C18        -6.6306   -0.3274    1.8832 C.ar      1 <0>        -0.0470
     23 N3         -5.7689   -0.6221    0.9294 N.ar      1 <0>        -0.1535
     24 C19        -4.5413   -0.1456    0.9280 C.ar      1 <0>        -0.0372
     25 O3         -7.1715    0.7973    3.9150 O.3       1 <0>        -0.2795
     26 H1          2.2861   -2.4423    6.8913 H         1 <0>         0.1269
     27 H2          0.7845   -3.8313    5.5228 H         1 <0>         0.1282
     28 H3         -0.4350   -2.8342    3.6317 H         1 <0>         0.1242
     29 H4          1.3663    0.9507    4.4780 H         1 <0>         0.1886
     30 H5          2.5737   -0.0537    6.3729 H         1 <0>         0.1325
     31 H6         -1.1247   -0.7181    2.5387 H         1 <0>         0.2329
     32 H7          0.2341   -0.3233   -0.1849 H         1 <0>         0.0861
     33 H8          1.3181    1.0883   -0.1605 H         1 <0>         0.1169
     34 H9          0.1681    0.8869   -2.3481 H         1 <0>         0.0890
     35 H10        -1.4088    0.9615   -1.5261 H         1 <0>         0.0723
     36 H11         0.7331    3.1353   -1.4683 H         1 <0>         0.0881
     37 H12        -0.7676    3.1820   -2.4243 H         1 <0>         0.0830
     38 H13        -1.0169    4.4592   -0.3136 H         1 <0>         0.0895
     39 H14        -2.1008    3.0476   -0.3379 H         1 <0>         0.0807
     40 H15         0.6261    3.1745    1.0276 H         1 <0>         0.1109
     41 H16        -0.9509    3.2490    1.8497 H         1 <0>         0.1266
     42 H17        -2.1910    0.3660    0.2038 H         1 <0>         0.2289
     43 H18        -4.6810    1.6710    3.7925 H         1 <0>         0.1762
     44 H19        -7.6293   -0.7365    1.8427 H         1 <0>         0.1737
     45 H20        -3.8673   -0.4076    0.1258 H         1 <0>         0.1556
     46 H21        -7.7011    1.5864    3.7362 H         1 <0>         0.2336
@<TRIPOS>BOND
     1    1    6 ar
     2    1    2 ar
     3    1   26 1
     4    2    3 ar
     5    2   27 1
     6    3    4 ar
     7    3   28 1
     8    4    5 ar
     9    4    7 1
    10    5    6 ar
    11    5   29 1
    12    6   30 1
    13    7    8 am
    14    7   31 1
    15    8    9 2
    16    8   10 1
    17   10   15 1
    18   10   11 1
    19   10   16 1
    20   11   12 1
    21   11   32 1
    22   11   33 1
    23   12   13 1
    24   12   34 1
    25   12   35 1
    26   13   14 1
    27   13   36 1
    28   13   37 1
    29   14   15 1
    30   14   38 1
    31   14   39 1
    32   15   40 1
    33   15   41 1
    34   16   17 am
    35   16   42 1
    36   17   18 2
    37   17   19 1
    38   19   24 ar
    39   19   20 ar
    40   20   21 ar
    41   20   43 1
    42   21   22 ar
    43   21   25 1
    44   22   23 ar
    45   22   44 1
    46   23   24 ar
    47   24   45 1
    48   25   46 1
@<TRIPOS>MOLECULE
ZINC00539938
   43    45     0     0     0
SMALL
USER_CHARGES

@<TRIPOS>ATOM
      1 C1         -2.8553   -3.2519    0.0105 C.3       1 <0>        -0.0518
      2 N1         -1.3904   -3.2587   -0.0039 N.am      1 <0>        -0.2380
      3 C2         -0.6926   -2.0616   -0.0035 C.2       1 <0>         0.1299
      4 C3          0.6977   -2.0965   -0.0169 C.2       1 <0>        -0.2782
      5 C4          1.3531   -3.3404   -0.0305 C.2       1 <0>         0.3878
      6 O1          2.5705   -3.3948   -0.0420 O.2       1 <0>        -0.3723
      7 N2          0.6201   -4.4729   -0.0302 N.am      1 <0>        -0.3364
      8 H1          1.0832   -5.3592   -0.0398 H         1 <0>         0.2822
      9 C5         -0.7233   -4.4281   -0.0172 C.2       1 <0>         0.4096
     10 O2         -1.3515   -5.4693   -0.0178 O.2       1 <0>        -0.3824
     11 N3          1.1218   -0.7744   -0.0183 N.pl3     1 <0>        -0.1402
     12 C6          0.0021   -0.0041    0.0020 C.2       1 <0>         0.2062
     13 N4         -1.0628   -0.7801    0.0076 N.2       1 <0>        -0.2546
     14 N5         -0.0166    1.3718    0.0096 N.pl3     1 <0>        -0.3546
     15 C7         -1.2951    2.0869    0.0195 C.3       1 <0>         0.0171
     16 C8         -1.0360    3.5948    0.0265 C.3       1 <0>        -0.1407
     17 C9         -2.3512    4.3305    0.0367 C.ar      1 <0>        -0.0807
     18 C10        -2.9573    4.6794   -1.1557 C.ar      1 <0>        -0.1201
     19 C11        -4.1663    5.3496   -1.1463 C.ar      1 <0>        -0.1239
     20 C12        -4.7638    5.6805    0.0555 C.ar      1 <0>        -0.1242
     21 C13        -4.1549    5.3366    1.2479 C.ar      1 <0>        -0.1242
     22 C14        -2.9487    4.6614    1.2386 C.ar      1 <0>        -0.1206
     23 C15         2.5082   -0.3011   -0.0357 C.3       1 <0>        -0.0124
     24 C16         3.0118   -0.1447    1.4006 C.3       1 <0>        -0.0207
     25 O3          4.3641    0.3169    1.3836 O.3       1 <0>        -0.3520
     26 H2         -3.2287   -3.2440   -1.0135 H         1 <0>         0.0856
     27 H3         -3.2177   -4.1433    0.5225 H         1 <0>         0.1104
     28 H4         -3.2094   -2.3634    0.5332 H         1 <0>         0.1031
     29 H5          0.8168    1.8681    0.0043 H         1 <0>         0.2398
     30 H6         -1.8673    1.8207   -0.8692 H         1 <0>         0.1000
     31 H7         -1.8588    1.8110    0.9107 H         1 <0>         0.0992
     32 H8         -0.4638    3.8610    0.9152 H         1 <0>         0.0926
     33 H9         -0.4723    3.8707   -0.8647 H         1 <0>         0.0935
     34 H10        -2.4882    4.4248   -2.0946 H         1 <0>         0.1312
     35 H11        -4.6422    5.6179   -2.0779 H         1 <0>         0.1321
     36 H12        -5.7065    6.2074    0.0629 H         1 <0>         0.1314
     37 H13        -4.6217    5.5951    2.1869 H         1 <0>         0.1318
     38 H14        -2.4730    4.3927    2.1702 H         1 <0>         0.1305
     39 H15         3.1319   -1.0230   -0.5628 H         1 <0>         0.1483
     40 H16         2.5572    0.6615   -0.5447 H         1 <0>         0.0997
     41 H17         2.3880    0.5772    1.9277 H         1 <0>         0.0572
     42 H18         2.9628   -1.1073    1.9096 H         1 <0>         0.0880
     43 H19         4.7491    0.4388    2.2622 H         1 <0>         0.2210
@<TRIPOS>BOND
     1    1    2 1
     2    1   26 1
     3    1   27 1
     4    1   28 1
     5    2    9 am
     6    2    3 1
     7    3   13 1
     8    3    4 2
     9    4    5 1
    10    4   11 1
    11    5    6 2
    12    5    7 am
    13    7    8 1
    14    7    9 am
    15    9   10 2
    16   11   12 1
    17   11   23 1
    18   12   13 2
    19   12   14 1
    20   14   15 1
    21   14   29 1
    22   15   16 1
    23   15   30 1
    24   15   31 1
    25   16   17 1
    26   16   32 1
    27   16   33 1
    28   17   22 ar
    29   17   18 ar
    30   18   19 ar
    31   18   34 1
    32   19   20 ar
    33   19   35 1
    34   20   21 ar
    35   20   36 1
    36   21   22 ar
    37   21   37 1
    38   22   38 1
    39   23   24 1
    40   23   39 1
    41   23   40 1
    42   24   25 1
    43   24   41 1
    44   24   42 1
    45   25   43 1
@<TRIPOS>MOLECULE
ZINC00539938
   44    46     0     0     0
SMALL
USER_CHARGES

@<TRIPOS>ATOM
      1 C1         -2.8553   -3.2519    0.0105 C.3       1 <0>        -0.0698
      2 N1         -1.3904   -3.2587   -0.0039 N.am      1 <0>        -0.2451
      3 C2         -0.6926   -2.0616   -0.0035 C.2       1 <0>         0.1327
      4 C3          0.6977   -2.0965   -0.0169 C.2       1 <0>        -0.1819
      5 C4          1.3531   -3.3404   -0.0305 C.2       1 <0>         0.3772
      6 O1          2.5705   -3.3948   -0.0420 O.2       1 <0>        -0.3016
      7 N2          0.6201   -4.4729   -0.0302 N.am      1 <0>        -0.3240
      8 H1          1.0832   -5.3592   -0.0398 H         1 <0>         0.3118
      9 C5         -0.7233   -4.4281   -0.0172 C.2       1 <0>         0.4091
     10 O2         -1.3515   -5.4693   -0.0178 O.2       1 <0>        -0.3082
     11 N3          1.1218   -0.7744   -0.0183 N.pl3     1 <0>        -0.0914
     12 C6          0.0021   -0.0041    0.0020 C.cat     1 <0>         0.2590
     13 N4         -0.0166    1.3718    0.0096 N.pl3     1 <0>        -0.3219
     14 C7         -1.2951    2.0869    0.0195 C.3       1 <0>        -0.0242
     15 C8         -1.0360    3.5948    0.0265 C.3       1 <0>        -0.1248
     16 C9         -2.3512    4.3305    0.0367 C.ar      1 <0>        -0.1113
     17 C10        -2.9573    4.6794   -1.1557 C.ar      1 <0>        -0.1189
     18 C11        -4.1663    5.3496   -1.1463 C.ar      1 <0>        -0.1168
     19 C12        -4.7638    5.6805    0.0555 C.ar      1 <0>        -0.1052
     20 C13        -4.1549    5.3366    1.2479 C.ar      1 <0>        -0.1170
     21 C14        -2.9487    4.6614    1.2386 C.ar      1 <0>        -0.1197
     22 C15         2.5082   -0.3011   -0.0357 C.3       1 <0>        -0.0221
     23 C16         3.0118   -0.1447    1.4006 C.3       1 <0>        -0.0163
     24 O3          4.3641    0.3169    1.3836 O.3       1 <0>        -0.3366
     25 H2         -3.2287   -3.2440   -1.0135 H         1 <0>         0.1093
     26 H3         -3.2177   -4.1433    0.5225 H         1 <0>         0.1517
     27 H4         -3.2094   -2.3634    0.5332 H         1 <0>         0.0798
     28 H5          0.8168    1.8681    0.0043 H         1 <0>         0.2781
     29 H6         -1.8673    1.8207   -0.8692 H         1 <0>         0.1007
     30 H7         -1.8588    1.8110    0.9107 H         1 <0>         0.0996
     31 H8         -0.4638    3.8610    0.9152 H         1 <0>         0.1063
     32 H9         -0.4723    3.8707   -0.8647 H         1 <0>         0.1074
     33 H10        -2.4882    4.4248   -2.0946 H         1 <0>         0.1304
     34 H11        -4.6422    5.6179   -2.0779 H         1 <0>         0.1448
     35 H12        -5.7065    6.2074    0.0629 H         1 <0>         0.1464
     36 H13        -4.6217    5.5951    2.1869 H         1 <0>         0.1445
     37 H14        -2.4730    4.3927    2.1702 H         1 <0>         0.1295
     38 H15         3.1319   -1.0230   -0.5628 H         1 <0>         0.1766
     39 H16         2.5572    0.6615   -0.5447 H         1 <0>         0.1222
     40 H17         2.3880    0.5772    1.9277 H         1 <0>         0.0579
     41 H18         2.9628   -1.1073    1.9096 H         1 <0>         0.0931
     42 H19         4.7491    0.4388    2.2622 H         1 <0>         0.2441
     43 N5         -1.0657   -0.7791    0.0076 N.pl3     1 <0>        -0.1669
     44 H20        -2.0371   -0.4465    0.0189 H         1 <0>         0.3116
@<TRIPOS>BOND
     1    1    2 1
     2    1   25 1
     3    1   26 1
     4    1   27 1
     5    2    9 am
     6    2    3 1
     7    3    4 2
     8    3   43 1
     9    4    5 1
    10    4   11 1
    11    5    6 2
    12    5    7 am
    13    7    8 1
    14    7    9 am
    15    9   10 2
    16   11   12 1
    17   11   22 1
    18   12   13 1
    19   12   43 2
    20   13   14 1
    21   13   28 1
    22   14   15 1
    23   14   29 1
    24   14   30 1
    25   15   16 1
    26   15   31 1
    27   15   32 1
    28   16   21 ar
    29   16   17 ar
    30   17   18 ar
    31   17   33 1
    32   18   19 ar
    33   18   34 1
    34   19   20 ar
    35   19   35 1
    36   20   21 ar
    37   20   36 1
    38   21   37 1
    39   22   23 1
    40   22   38 1
    41   22   39 1
    42   23   24 1
    43   23   40 1
    44   23   41 1
    45   24   42 1
    46   43   44 1
@<TRIPOS>MOLECULE
ZINC00542446
   41    43     0     0     0
SMALL
USER_CHARGES

@<TRIPOS>ATOM
      1 C1          3.4877   11.0953   -3.1334 C.3       1 <0>        -0.0684
      2 N1          3.4358   11.1866   -1.6722 N.pl3     1 <0>        -0.1288
      3 C2          3.3909   12.3421   -0.9249 C.2       1 <0>        -0.1799
      4 C3          3.3529   11.9725    0.3666 C.2       1 <0>        -0.1447
      5 N2          3.3677   10.6301    0.4228 N.2       1 <0>        -0.1844
      6 C4          3.4232   10.1453   -0.7958 C.2       1 <0>        -0.1704
      7 S1          3.4664    8.4367   -1.2244 S.3       1 <0>         0.2445
      8 C5          3.4223    7.6972    0.4270 C.3       1 <0>        -0.1914
      9 C6          3.4515    6.1954    0.3058 C.ar      1 <0>         0.1696
     10 N3          4.6092    5.5577    0.2920 N.ar      1 <0>        -0.3429
     11 C7          4.6391    4.2313    0.1851 C.ar      1 <0>         0.2773
     12 N4          3.5033    3.5483    0.0922 N.ar      1 <0>        -0.3704
     13 C8          2.3416    4.1928    0.1065 C.ar      1 <0>         0.2765
     14 N5          2.3200    5.5200    0.2086 N.ar      1 <0>        -0.3413
     15 N6          1.1584    3.4874    0.0097 N.pl3     1 <0>        -0.2581
     16 C9          1.1756    2.0869    0.0128 C.ar      1 <0>         0.0350
     17 C10         2.1324    1.4057    0.7536 C.ar      1 <0>        -0.0875
     18 C11         2.1488    0.0248    0.7561 C.ar      1 <0>        -0.1453
     19 C12         1.2095   -0.6817    0.0193 C.ar      1 <0>         0.0801
     20 C13         0.2535   -0.0018   -0.7210 C.ar      1 <0>        -0.2039
     21 C14         0.2361    1.3790   -0.7249 C.ar      1 <0>        -0.1220
     22 O1          1.2263   -2.0414    0.0223 O.3       1 <0>        -0.2129
     23 C15         0.2300   -2.7042   -0.7587 C.3       1 <0>        -0.0626
     24 N7          5.8483    3.5664    0.1711 N.pl3     1 <0>        -0.3646
     25 H1          2.4737   11.0552   -3.5312 H         1 <0>         0.0922
     26 H2          4.0009   11.9694   -3.5341 H         1 <0>         0.0950
     27 H3          4.0271   10.1932   -3.4221 H         1 <0>         0.1040
     28 H4          3.3867   13.3532   -1.3044 H         1 <0>         0.1739
     29 H5          3.3124   12.6403    1.2144 H         1 <0>         0.1779
     30 H6          2.5091    8.0028    0.9377 H         1 <0>         0.1459
     31 H7          4.2878    8.0325    0.9985 H         1 <0>         0.1457
     32 H8          0.3152    3.9619   -0.0604 H         1 <0>         0.2587
     33 H9          2.8607    1.9556    1.3311 H         1 <0>         0.1622
     34 H10         2.8928   -0.5052    1.3322 H         1 <0>         0.1448
     35 H11        -0.4772   -0.5526   -1.2947 H         1 <0>         0.1367
     36 H12        -0.5081    1.9082   -1.3015 H         1 <0>         0.1323
     37 H13         0.3339   -2.4123   -1.8038 H         1 <0>         0.0675
     38 H14         0.3560   -3.7832   -0.6686 H         1 <0>         0.1073
     39 H15        -0.7599   -2.4228   -0.3996 H         1 <0>         0.0670
     40 H16         5.8694    2.5998    0.0935 H         1 <0>         0.2419
     41 H17         6.6771    4.0657    0.2390 H         1 <0>         0.2440
@<TRIPOS>BOND
     1    1    2 1
     2    1   25 1
     3    1   26 1
     4    1   27 1
     5    2    6 1
     6    2    3 1
     7    3    4 2
     8    3   28 1
     9    4    5 1
    10    4   29 1
    11    5    6 2
    12    6    7 1
    13    7    8 1
    14    8    9 1
    15    8   30 1
    16    8   31 1
    17    9   14 ar
    18    9   10 ar
    19   10   11 ar
    20   11   12 ar
    21   11   24 1
    22   12   13 ar
    23   13   14 ar
    24   13   15 1
    25   15   16 1
    26   15   32 1
    27   16   21 ar
    28   16   17 ar
    29   17   18 ar
    30   17   33 1
    31   18   19 ar
    32   18   34 1
    33   19   20 ar
    34   19   22 1
    35   20   21 ar
    36   20   35 1
    37   21   36 1
    38   22   23 1
    39   23   37 1
    40   23   38 1
    41   23   39 1
    42   24   40 1
    43   24   41 1
@<TRIPOS>MOLECULE
ZINC00543176
   43    46     0     0     0
SMALL
USER_CHARGES

@<TRIPOS>ATOM
      1 C1         -1.2309   -2.2055    0.0031 C.3       1 <0>        -0.1533
      2 C2         -1.2153   -0.6986    0.0105 C.ar      1 <0>        -0.1756
      3 C3         -2.3985    0.0093    0.0261 C.ar      1 <0>         0.1586
      4 C4         -2.4096    1.4100    0.0337 C.ar      1 <0>        -0.1911
      5 C5         -1.2583    2.1293    0.0314 C.ar      1 <0>        -0.0236
      6 C6         -0.0178    1.4620    0.0101 C.ar      1 <0>        -0.1132
      7 C7          0.0021   -0.0041    0.0020 C.ar      1 <0>         0.0854
      8 N1          1.1754   -0.6466   -0.0128 N.ar      1 <0>        -0.1958
      9 C8          2.2956    0.0483   -0.0197 C.ar      1 <0>         0.1328
     10 C9          2.2717    1.4647   -0.0113 C.ar      1 <0>        -0.1601
     11 N2          1.1336    2.1311    0.0027 N.ar      1 <0>        -0.0064
     12 C10         3.5683    2.1801   -0.0193 C.2       1 <0>         0.3577
     13 O1          3.6098    3.3948   -0.0123 O.2       1 <0>        -0.2947
     14 N3          4.7029    1.4491   -0.0341 N.am      1 <0>        -0.3064
     15 C11         4.6681    0.1079   -0.0416 C.2       1 <0>         0.4103
     16 O2          5.7209   -0.4997   -0.0553 O.2       1 <0>        -0.3736
     17 N4          3.5233   -0.5936   -0.0349 N.am      1 <0>        -0.2947
     18 H1          3.5572   -1.5930   -0.0410 H         1 <0>         0.2833
     19 C12         5.9981    2.1337   -0.0427 C.3       1 <0>        -0.0038
     20 C13         6.4627    2.3642    1.3967 C.3       1 <0>        -0.1413
     21 C14         7.7950    3.0685    1.3878 C.ar      1 <0>        -0.0806
     22 C15         8.9655    2.3331    1.3784 C.ar      1 <0>        -0.1204
     23 C16        10.1875    2.9792    1.3649 C.ar      1 <0>        -0.1281
     24 C17        10.2391    4.3605    1.3720 C.ar      1 <0>        -0.1282
     25 C18         9.0687    5.0959    1.3872 C.ar      1 <0>        -0.1278
     26 C19         7.8466    4.4499    1.3949 C.ar      1 <0>        -0.1207
     27 N5         -3.6066   -0.6822    0.0341 N.pl3     1 <0>        -0.4010
     28 H2         -1.2245   -2.5739    1.0289 H         1 <0>         0.0849
     29 H3         -2.1295   -2.5571   -0.5037 H         1 <0>         0.0645
     30 H4         -0.3498   -2.5754   -0.5213 H         1 <0>         0.1046
     31 H5         -3.3561    1.9299    0.0463 H         1 <0>         0.1391
     32 H6         -1.2934    3.2087    0.0375 H         1 <0>         0.1572
     33 H7          6.7303    1.5196   -0.5669 H         1 <0>         0.1237
     34 H8          5.8985    3.0931   -0.5504 H         1 <0>         0.1219
     35 H9          5.7305    2.9784    1.9209 H         1 <0>         0.1009
     36 H10         6.5623    1.4048    1.9044 H         1 <0>         0.1014
     37 H11         8.9251    1.2539    1.3774 H         1 <0>         0.1357
     38 H12        11.1019    2.4047    1.3527 H         1 <0>         0.1294
     39 H13        11.1939    4.8653    1.3652 H         1 <0>         0.1280
     40 H14         9.1090    6.1751    1.3927 H         1 <0>         0.1296
     41 H15         6.9322    5.0244    1.4068 H         1 <0>         0.1359
     42 H16        -3.6103   -1.6522    0.0287 H         1 <0>         0.2315
     43 H17        -4.4448   -0.1940    0.0451 H         1 <0>         0.2239
@<TRIPOS>BOND
     1    1    2 1
     2    1   28 1
     3    1   29 1
     4    1   30 1
     5    2    7 ar
     6    2    3 ar
     7    3    4 ar
     8    3   27 1
     9    4    5 ar
    10    4   31 1
    11    5    6 ar
    12    5   32 1
    13    6   11 ar
    14    6    7 ar
    15    7    8 ar
    16    8    9 ar
    17    9   17 1
    18    9   10 ar
    19   10   11 ar
    20   10   12 1
    21   12   13 2
    22   12   14 am
    23   14   15 am
    24   14   19 1
    25   15   16 2
    26   15   17 am
    27   17   18 1
    28   19   20 1
    29   19   33 1
    30   19   34 1
    31   20   21 1
    32   20   35 1
    33   20   36 1
    34   21   26 ar
    35   21   22 ar
    36   22   23 ar
    37   22   37 1
    38   23   24 ar
    39   23   38 1
    40   24   25 ar
    41   24   39 1
    42   25   26 ar
    43   25   40 1
    44   26   41 1
    45   27   42 1
    46   27   43 1
@<TRIPOS>MOLECULE
ZINC00544452
   38    41     0     0     0
SMALL
USER_CHARGES

@<TRIPOS>ATOM
      1 C1         -0.1380    1.0780   -0.0454 C.3       1 <0>        -0.0633
      2 O1         -0.8885    1.5440    1.0778 O.3       1 <0>        -0.2064
      3 C2         -0.9384    2.8875    1.2716 C.ar      1 <0>         0.1405
      4 C3         -0.2729    3.7383    0.3903 C.ar      1 <0>        -0.2417
      5 C4         -0.3132    5.0896    0.5711 C.ar      1 <0>        -0.0259
      6 C5         -1.0267    5.6291    1.6468 C.ar      1 <0>        -0.1558
      7 C6         -1.7021    4.7760    2.5413 C.ar      1 <0>         0.0925
      8 C7         -1.6534    3.4003    2.3378 C.ar      1 <0>        -0.2004
      9 N1         -2.3150    5.5574    3.4950 N.pl3     1 <0>        -0.1583
     10 H1         -2.8479    5.2210    4.2324 H         1 <0>         0.2632
     11 C8         -2.0565    6.8968    3.2452 C.2       1 <0>        -0.1539
     12 C9         -1.2649    6.9932    2.1143 C.2       1 <0>         0.0486
     13 N2         -0.8716    8.2403    1.6631 N.am      1 <0>        -0.2815
     14 H2         -0.2993    8.3182    0.8468 H         1 <0>         0.2755
     15 C10        -1.2582    9.3497    2.3214 C.2       1 <0>         0.4108
     16 O2         -0.9046   10.4389    1.9121 O.2       1 <0>        -0.3571
     17 N3         -2.0267    9.2773    3.4219 N.am      1 <0>        -0.2506
     18 C11        -2.4393    8.0894    3.9064 C.2       1 <0>         0.3648
     19 O3         -3.1354    8.0417    4.9051 O.2       1 <0>        -0.3509
     20 N4         -2.4054   10.4569    4.0761 N.2       1 <0>         0.0067
     21 C12        -1.9650   10.7062    5.2709 C.2       1 <0>        -0.0236
     22 C13        -2.4522   11.8895    6.0045 C.ar      1 <0>        -0.0275
     23 C14        -3.3857   12.7605    5.4278 C.ar      1 <0>        -0.1384
     24 C15        -3.8168   13.8525    6.1516 C.ar      1 <0>        -0.0518
     25 N5         -3.3552   14.0863    7.3653 N.ar      1 <0>        -0.1516
     26 C16        -2.4724   13.2948    7.9440 C.ar      1 <0>        -0.0502
     27 C17        -1.9900   12.1774    7.2953 C.ar      1 <0>        -0.1602
     28 H3         -0.1799   -0.0105   -0.0840 H         1 <0>         0.1125
     29 H4          0.8992    1.3985    0.0524 H         1 <0>         0.0705
     30 H5         -0.5609    1.4905   -0.9614 H         1 <0>         0.0710
     31 H6          0.2787    3.3246   -0.4410 H         1 <0>         0.1411
     32 H7          0.2054    5.7425   -0.1154 H         1 <0>         0.1319
     33 H8         -2.1699    2.7345    3.0133 H         1 <0>         0.1506
     34 H9         -1.2418   10.0473    5.7283 H         1 <0>         0.1342
     35 H10        -3.7647   12.5776    4.4331 H         1 <0>         0.1646
     36 H11        -4.5388   14.5280    5.7172 H         1 <0>         0.1659
     37 H12        -2.1223   13.5254    8.9393 H         1 <0>         0.1635
     38 H13        -1.2674   11.5340    7.7751 H         1 <0>         0.1408
@<TRIPOS>BOND
     1    1    2 1
     2    1   28 1
     3    1   29 1
     4    1   30 1
     5    2    3 1
     6    3    8 ar
     7    3    4 ar
     8    4    5 ar
     9    4   31 1
    10    5    6 ar
    11    5   32 1
    12    6   12 1
    13    6    7 ar
    14    7    8 ar
    15    7    9 1
    16    8   33 1
    17    9   10 1
    18    9   11 1
    19   11   18 1
    20   11   12 2
    21   12   13 1
    22   13   14 1
    23   13   15 am
    24   15   16 2
    25   15   17 am
    26   17   18 am
    27   17   20 1
    28   18   19 2
    29   20   21 2
    30   21   22 1
    31   21   34 1
    32   22   27 ar
    33   22   23 ar
    34   23   24 ar
    35   23   35 1
    36   24   25 ar
    37   24   36 1
    38   25   26 ar
    39   26   27 ar
    40   26   37 1
    41   27   38 1
@<TRIPOS>MOLECULE
ZINC00545519
   42    45     0     0     0
SMALL
USER_CHARGES

@<TRIPOS>ATOM
      1 C1         -4.7987    0.8772    0.0295 C.3       1 <0>        -0.2118
      2 C2         -3.5967    1.8238    0.0289 C.3       1 <0>        -0.0153
      3 O1         -2.3889    1.0601    0.0191 O.3       1 <0>        -0.2123
      4 C3         -1.2203    1.7538    0.0173 C.ar      1 <0>         0.0958
      5 C4         -1.2371    3.1420    0.0298 C.ar      1 <0>        -0.2130
      6 C5         -0.0510    3.8514    0.0223 C.ar      1 <0>        -0.0948
      7 C6          1.1572    3.1833    0.0076 C.ar      1 <0>        -0.1448
      8 C7          1.1827    1.7903    0.0004 C.ar      1 <0>         0.0260
      9 C8         -0.0126    1.0758    0.0080 C.ar      1 <0>        -0.1293
     10 C9          2.4803    1.0698   -0.0149 C.2       1 <0>         0.0036
     11 C10         3.6414    1.4804   -0.6766 C.2       1 <0>        -0.2561
     12 C11         4.6124    0.5503   -0.4426 C.2       1 <0>         0.1021
     13 N1          4.0766   -0.4168    0.3308 N.pl3     1 <0>        -0.1725
     14 H1          4.5486   -1.2339    0.6618 H         1 <0>         0.2889
     15 N2          2.7402   -0.0742    0.5890 N.2       1 <0>        -0.0523
     16 O2          5.8678    0.6601   -0.9445 O.3       1 <0>        -0.1372
     17 C12         6.2332    1.8521   -1.4583 C.2       1 <0>         0.2670
     18 C13         5.3639    2.8479   -1.7403 C.2       1 <0>        -0.2564
     19 C14         3.8796    2.7153   -1.5067 C.3       1 <0>         0.1241
     20 H2          3.5106    3.5942   -0.9781 H         1 <0>         0.1144
     21 C15         3.1671    2.5802   -2.8277 C.2       1 <0>        -0.1647
     22 C16         2.1725    3.4442   -3.3408 C.2       1 <0>        -0.2060
     23 C17         1.8151    2.9568   -4.5425 C.2       1 <0>        -0.1028
     24 O3          2.5296    1.8444   -4.7789 O.3       1 <0>        -0.0557
     25 C18         3.3511    1.6112   -3.7424 C.2       1 <0>        -0.0831
     26 C19         5.8706    4.0737   -2.2801 C.1       1 <0>        -0.0617
     27 N3          6.2725    5.0461   -2.7083 N.1       1 <0>        -0.0743
     28 N4          7.5655    2.0665   -1.7100 N.pl3     1 <0>        -0.3894
     29 H3         -5.7200    1.4597    0.0370 H         1 <0>         0.0858
     30 H4         -4.7704    0.2536   -0.8640 H         1 <0>         0.0889
     31 H5         -4.7620    0.2439    0.9159 H         1 <0>         0.0889
     32 H6         -3.6250    2.4475    0.9225 H         1 <0>         0.0739
     33 H7         -3.6334    2.4571   -0.8575 H         1 <0>         0.0738
     34 H8         -2.1797    3.6690    0.0412 H         1 <0>         0.1346
     35 H9         -0.0693    4.9312    0.0282 H         1 <0>         0.1320
     36 H10         2.0824    3.7405    0.0021 H         1 <0>         0.1389
     37 H11         0.0021   -0.0041    0.0020 H         1 <0>         0.1563
     38 H12         1.7777    4.3277   -2.8612 H         1 <0>         0.1554
     39 H13         1.0751    3.3844   -5.2028 H         1 <0>         0.1961
     40 H14         4.0419    0.7854   -3.6574 H         1 <0>         0.1967
     41 H15         8.2135    1.3706   -1.5184 H         1 <0>         0.2285
     42 H16         7.8591    2.9140   -2.0796 H         1 <0>         0.2617
@<TRIPOS>BOND
     1    1    2 1
     2    1   29 1
     3    1   30 1
     4    1   31 1
     5    2    3 1
     6    2   32 1
     7    2   33 1
     8    3    4 1
     9    4    9 ar
    10    4    5 ar
    11    5    6 ar
    12    5   34 1
    13    6    7 ar
    14    6   35 1
    15    7    8 ar
    16    7   36 1
    17    8    9 ar
    18    8   10 1
    19    9   37 1
    20   10   15 2
    21   10   11 1
    22   11   19 1
    23   11   12 2
    24   12   13 1
    25   12   16 1
    26   13   14 1
    27   13   15 1
    28   16   17 1
    29   17   18 2
    30   17   28 1
    31   18   19 1
    32   18   26 1
    33   19   20 1
    34   19   21 1
    35   21   25 2
    36   21   22 1
    37   22   23 2
    38   22   38 1
    39   23   24 1
    40   23   39 1
    41   24   25 1
    42   25   40 1
    43   26   27 3
    44   28   41 1
    45   28   42 1
@<TRIPOS>MOLECULE
ZINC00545519
   42    45     0     0     0
SMALL
USER_CHARGES

@<TRIPOS>ATOM
      1 C1         -4.7968    0.8947    0.0531 C.3       1 <0>        -0.2118
      2 C2         -3.5930    1.8390    0.0508 C.3       1 <0>        -0.0158
      3 O1         -2.3867    1.0730    0.0370 O.3       1 <0>        -0.2132
      4 C3         -1.2168    1.7644    0.0333 C.ar      1 <0>         0.1039
      5 C4         -1.2308    3.1526    0.0477 C.ar      1 <0>        -0.2096
      6 C5         -0.0434    3.8597    0.0382 C.ar      1 <0>        -0.0888
      7 C6          1.1635    3.1893    0.0197 C.ar      1 <0>        -0.1353
      8 C7          1.1863    1.7963    0.0105 C.ar      1 <0>        -0.0009
      9 C8         -0.0104    1.0841    0.0201 C.ar      1 <0>        -0.1527
     10 C9          2.4824    1.0733   -0.0090 C.2       1 <0>         0.0378
     11 C10         3.6427    1.4826   -0.6730 C.2       1 <0>        -0.2678
     12 C11         4.6079    0.5426   -0.4552 C.2       1 <0>         0.0793
     13 N1          4.0693   -0.4291    0.3104 N.2       1 <0>        -0.0915
     14 H1          2.0882   -0.6178    1.1180 H         1 <0>         0.2941
     15 N2          2.7358   -0.0816    0.5767 N.pl3     1 <0>        -0.1325
     16 O2          5.8622    0.6503   -0.9605 O.3       1 <0>        -0.1063
     17 C12         6.2326    1.8435   -1.4659 C.2       1 <0>         0.2706
     18 C13         5.3692    2.8489   -1.7315 C.2       1 <0>        -0.2706
     19 C14         3.8812    2.7181   -1.5020 C.3       1 <0>         0.1262
     20 H2          3.5152    3.5970   -0.9713 H         1 <0>         0.1087
     21 C15         3.1652    2.5862   -2.8214 C.2       1 <0>        -0.1659
     22 C16         2.1711    3.4528   -3.3309 C.2       1 <0>        -0.2089
     23 C17         1.8098    2.9678   -4.5323 C.2       1 <0>        -0.1040
     24 O3          2.5215    1.8543   -4.7720 O.3       1 <0>        -0.0558
     25 C18         3.3451    1.6181   -3.7378 C.2       1 <0>        -0.0812
     26 C19         5.8821    4.0769   -2.2605 C.1       1 <0>        -0.0590
     27 N3          6.2888    5.0510   -2.6802 N.1       1 <0>        -0.0814
     28 N4          7.5650    2.0506   -1.7232 N.pl3     1 <0>        -0.3872
     29 H3         -5.7170    1.4790    0.0636 H         1 <0>         0.0884
     30 H4         -4.7719    0.2723   -0.8414 H         1 <0>         0.0901
     31 H5         -4.7592    0.2601    0.9385 H         1 <0>         0.0888
     32 H6         -3.6179    2.4615    0.9453 H         1 <0>         0.0747
     33 H7         -3.6306    2.4736   -0.8347 H         1 <0>         0.0762
     34 H8         -2.1724    3.6814    0.0621 H         1 <0>         0.1382
     35 H9         -0.0596    4.9396    0.0456 H         1 <0>         0.1364
     36 H10         2.0897    3.7447    0.0126 H         1 <0>         0.1461
     37 H11         0.0022    0.0042    0.0126 H         1 <0>         0.1411
     38 H12         1.7791    4.3364   -2.8491 H         1 <0>         0.1534
     39 H13         1.0690    3.3977   -5.1902 H         1 <0>         0.1953
     40 H14         4.0345    0.7909   -3.6557 H         1 <0>         0.2005
     41 H15         8.2088    1.3477   -1.5433 H         1 <0>         0.2306
     42 H16         7.8628    2.9000   -2.0850 H         1 <0>         0.2597
@<TRIPOS>BOND
     1    1    2 1
     2    1   29 1
     3    1   30 1
     4    1   31 1
     5    2    3 1
     6    2   32 1
     7    2   33 1
     8    3    4 1
     9    4    9 ar
    10    4    5 ar
    11    5    6 ar
    12    5   34 1
    13    6    7 ar
    14    6   35 1
    15    7    8 ar
    16    7   36 1
    17    8    9 ar
    18    8   10 1
    19    9   37 1
    20   10   11 2
    21   10   15 1
    22   11   19 1
    23   11   12 1
    24   12   16 1
    25   12   13 2
    26   13   15 1
    27   14   15 1
    28   16   17 1
    29   17   18 2
    30   17   28 1
    31   18   19 1
    32   18   26 1
    33   19   20 1
    34   19   21 1
    35   21   25 2
    36   21   22 1
    37   22   23 2
    38   22   38 1
    39   23   24 1
    40   23   39 1
    41   24   25 1
    42   25   40 1
    43   26   27 3
    44   28   41 1
    45   28   42 1
@<TRIPOS>MOLECULE
ZINC00545520
   42    45     0     0     0
SMALL
USER_CHARGES

@<TRIPOS>ATOM
      1 C1          3.7815   -5.9241    2.5246 C.3       1 <0>        -0.2119
      2 C2          3.3139   -4.6728    3.2706 C.3       1 <0>        -0.0151
      3 O1          3.8173   -3.5092    2.6112 O.3       1 <0>        -0.2140
      4 C3          3.4913   -2.3050    3.1502 C.ar      1 <0>         0.0956
      5 C4          2.7021   -2.2459    4.2908 C.ar      1 <0>        -0.2126
      6 C5          2.3678   -1.0233    4.8420 C.ar      1 <0>        -0.0937
      7 C6          2.8225    0.1458    4.2650 C.ar      1 <0>        -0.1360
      8 C7          3.6098    0.0952    3.1166 C.ar      1 <0>         0.0264
      9 C8          3.9461   -1.1368    2.5613 C.ar      1 <0>        -0.1375
     10 C9          4.0939    1.3508    2.4903 C.2       1 <0>         0.0031
     11 C10         4.1326    1.6238    1.1206 C.2       1 <0>        -0.2561
     12 C11         4.6425    2.8798    0.9542 C.2       1 <0>         0.1016
     13 N1          4.9128    3.3780    2.1785 N.pl3     1 <0>        -0.1729
     14 H1          5.2952    4.2810    2.3745 H         1 <0>         0.2886
     15 N2          4.5630    2.4061    3.1287 N.2       1 <0>        -0.0537
     16 O2          4.8122    3.4459   -0.2668 O.3       1 <0>        -0.1374
     17 C12         4.7237    2.6420   -1.3458 C.2       1 <0>         0.2655
     18 C13         4.2272    1.3855   -1.3088 C.2       1 <0>        -0.2533
     19 C14         3.7120    0.7571   -0.0380 C.3       1 <0>         0.1235
     20 H2          4.1352   -0.2409    0.0766 H         1 <0>         0.1174
     21 C15         2.2084    0.6691   -0.0876 C.2       1 <0>        -0.1635
     22 C16         1.4334   -0.5134   -0.0940 C.2       1 <0>        -0.2043
     23 C17         0.1439   -0.1339   -0.1446 C.2       1 <0>        -0.1052
     24 O3          0.0971    1.2081   -0.1691 O.3       1 <0>        -0.0570
     25 C18         1.3462    1.7004   -0.1347 C.2       1 <0>        -0.0855
     26 C19         4.1884    0.6232   -2.5204 C.1       1 <0>        -0.0613
     27 N3          4.1576    0.0184   -3.4815 N.1       1 <0>        -0.0740
     28 N4          5.1640    3.1279   -2.5519 N.pl3     1 <0>        -0.3898
     29 H3          3.3975   -6.8116    3.0276 H         1 <0>         0.0862
     30 H4          3.4091   -5.8971    1.5006 H         1 <0>         0.0890
     31 H5          4.8710   -5.9551    2.5144 H         1 <0>         0.0892
     32 H6          3.6863   -4.6998    4.2946 H         1 <0>         0.0744
     33 H7          2.2244   -4.6418    3.2808 H         1 <0>         0.0737
     34 H8          2.3480   -3.1578    4.7485 H         1 <0>         0.1346
     35 H9          1.7536   -0.9825    5.7294 H         1 <0>         0.1327
     36 H10         2.5639    1.0994    4.7010 H         1 <0>         0.1426
     37 H11         4.5601   -1.1812    1.6739 H         1 <0>         0.1502
     38 H12         1.8053   -1.5269   -0.0634 H         1 <0>         0.1590
     39 H13        -0.7091   -0.7961   -0.1622 H         1 <0>         0.1958
     40 H14         1.6130    2.7469   -0.1435 H         1 <0>         0.1963
     41 H15         5.1135    2.5730   -3.3459 H         1 <0>         0.2616
     42 H16         5.5255    4.0261   -2.6101 H         1 <0>         0.2281
@<TRIPOS>BOND
     1    1    2 1
     2    1   29 1
     3    1   30 1
     4    1   31 1
     5    2    3 1
     6    2   32 1
     7    2   33 1
     8    3    4 1
     9    4    9 ar
    10    4    5 ar
    11    5    6 ar
    12    5   34 1
    13    6    7 ar
    14    6   35 1
    15    7    8 ar
    16    7   36 1
    17    8    9 ar
    18    8   10 1
    19    9   37 1
    20   10   15 2
    21   10   11 1
    22   11   19 1
    23   11   12 2
    24   12   13 1
    25   12   16 1
    26   13   14 1
    27   13   15 1
    28   16   17 1
    29   17   18 2
    30   17   28 1
    31   18   19 1
    32   18   26 1
    33   19   20 1
    34   19   21 1
    35   21   25 2
    36   21   22 1
    37   22   23 2
    38   22   38 1
    39   23   24 1
    40   23   39 1
    41   24   25 1
    42   25   40 1
    43   26   27 3
    44   28   41 1
    45   28   42 1
@<TRIPOS>MOLECULE
ZINC00545520
   42    45     0     0     0
SMALL
USER_CHARGES

@<TRIPOS>ATOM
      1 C1          3.7791   -5.9238    2.5250 C.3       1 <0>        -0.2119
      2 C2          3.3118   -4.6723    3.2709 C.3       1 <0>        -0.0161
      3 O1          3.8155   -3.5089    2.6115 O.3       1 <0>        -0.2105
      4 C3          3.4898   -2.3046    3.1504 C.ar      1 <0>         0.1017
      5 C4          2.7005   -2.2452    4.2909 C.ar      1 <0>        -0.2103
      6 C5          2.3664   -1.0225    4.8420 C.ar      1 <0>        -0.0863
      7 C6          2.8215    0.1464    4.2650 C.ar      1 <0>        -0.1570
      8 C7          3.6089    0.0956    3.1166 C.ar      1 <0>        -0.0026
      9 C8          3.9449   -1.1365    2.5615 C.ar      1 <0>        -0.1287
     10 C9          4.0934    1.3510    2.4903 C.2       1 <0>         0.0366
     11 C10         4.1323    1.6239    1.1206 C.2       1 <0>        -0.2672
     12 C11         4.6424    2.8799    0.9542 C.2       1 <0>         0.0790
     13 N1          4.9126    3.3781    2.1785 N.2       1 <0>        -0.0925
     14 H1          4.6540    2.4976    4.1203 H         1 <0>         0.2929
     15 N2          4.5629    2.4062    3.1287 N.pl3     1 <0>        -0.1333
     16 O2          4.8120    3.4460   -0.2668 O.3       1 <0>        -0.1065
     17 C12         4.7238    2.6419   -1.3458 C.2       1 <0>         0.2687
     18 C13         4.2271    1.3855   -1.3088 C.2       1 <0>        -0.2670
     19 C14         3.7116    0.7573   -0.0380 C.3       1 <0>         0.1253
     20 H2          4.1345   -0.2408    0.0767 H         1 <0>         0.1119
     21 C15         2.2079    0.6697   -0.0877 C.2       1 <0>        -0.1645
     22 C16         1.4327   -0.5126   -0.0941 C.2       1 <0>        -0.2070
     23 C17         0.1433   -0.1328   -0.1449 C.2       1 <0>        -0.1067
     24 O3          0.0968    1.2092   -0.1695 O.3       1 <0>        -0.0572
     25 C18         1.3460    1.7012   -0.1350 C.2       1 <0>        -0.0841
     26 C19         4.1884    0.6231   -2.5203 C.1       1 <0>        -0.0587
     27 N3          4.1576    0.0183   -3.4814 N.1       1 <0>        -0.0809
     28 N4          5.1643    3.1277   -2.5518 N.pl3     1 <0>        -0.3875
     29 H3          3.3948   -6.8112    3.0280 H         1 <0>         0.0878
     30 H4          3.4068   -5.8968    1.5010 H         1 <0>         0.0907
     31 H5          4.8686   -5.9551    2.5149 H         1 <0>         0.0900
     32 H6          3.6840   -4.6994    4.2949 H         1 <0>         0.0744
     33 H7          2.2223   -4.6411    3.2810 H         1 <0>         0.0751
     34 H8          2.3461   -3.1570    4.7486 H         1 <0>         0.1382
     35 H9          1.7521   -0.9815    5.7293 H         1 <0>         0.1350
     36 H10         2.5631    1.1001    4.7009 H         1 <0>         0.1305
     37 H11         4.5590   -1.1811    1.6741 H         1 <0>         0.1567
     38 H12         1.8043   -1.5262   -0.0634 H         1 <0>         0.1572
     39 H13        -0.7099   -0.7948   -0.1625 H         1 <0>         0.1950
     40 H14         1.6131    2.7476   -0.1438 H         1 <0>         0.2000
     41 H15         5.1139    2.5727   -3.3458 H         1 <0>         0.2597
     42 H16         5.5260    4.0258   -2.6101 H         1 <0>         0.2302
@<TRIPOS>BOND
     1    1    2 1
     2    1   29 1
     3    1   30 1
     4    1   31 1
     5    2    3 1
     6    2   32 1
     7    2   33 1
     8    3    4 1
     9    4    9 ar
    10    4    5 ar
    11    5    6 ar
    12    5   34 1
    13    6    7 ar
    14    6   35 1
    15    7    8 ar
    16    7   36 1
    17    8    9 ar
    18    8   10 1
    19    9   37 1
    20   10   11 2
    21   10   15 1
    22   11   19 1
    23   11   12 1
    24   12   16 1
    25   12   13 2
    26   13   15 1
    27   14   15 1
    28   16   17 1
    29   17   18 2
    30   17   28 1
    31   18   19 1
    32   18   26 1
    33   19   20 1
    34   19   21 1
    35   21   25 2
    36   21   22 1
    37   22   23 2
    38   22   38 1
    39   23   24 1
    40   23   39 1
    41   24   25 1
    42   25   40 1
    43   26   27 3
    44   28   41 1
    45   28   42 1
@<TRIPOS>MOLECULE
ZINC00545600
   42    44     0     0     0
SMALL
USER_CHARGES

@<TRIPOS>ATOM
      1 C1         -2.9074    3.5609    9.4931 C.3       1 <0>        -0.2385
      2 C2         -2.1804    3.1838    8.2280 C.2       1 <0>         0.2997
      3 O1         -0.9821    2.9983    8.2496 O.2       1 <0>        -0.3455
      4 N1         -2.8619    3.0526    7.0727 N.am      1 <0>        -0.3307
      5 C3         -2.2106    2.5973    5.9269 C.ar      1 <0>         0.0873
      6 C4         -1.1823    1.6666    6.0365 C.ar      1 <0>        -0.1403
      7 C5         -0.5375    1.2147    4.9072 C.ar      1 <0>        -0.0463
      8 C6         -0.9169    1.6920    3.6497 C.ar      1 <0>        -0.1475
      9 C7         -1.9466    2.6308    3.5436 C.ar      1 <0>        -0.0881
     10 C8         -2.5908    3.0746    4.6765 C.ar      1 <0>        -0.1751
     11 C9         -0.2274    1.2102    2.4369 C.2       1 <0>         0.3500
     12 O2          0.6716    0.3971    2.5311 O.2       1 <0>        -0.3626
     13 N2         -0.5945    1.6714    1.2249 N.am      1 <0>        -0.3972
     14 C10         0.0898    1.1932    0.0210 C.3       1 <0>         0.0001
     15 C11        -0.5146    1.8687   -1.2115 C.3       1 <0>        -0.1023
     16 C12         0.1893    1.3767   -2.4499 C.2       1 <0>         0.0167
     17 N3         -0.4265    0.8166   -3.5258 N.pl3     1 <0>        -0.2200
     18 H1         -1.4086    0.6611   -3.6321 H         1 <0>         0.2517
     19 C13         0.5557    0.5026   -4.4437 C.ar      1 <0>        -0.0473
     20 C14         0.5504   -0.0764   -5.7055 C.ar      1 <0>        -0.1294
     21 C15         1.7395   -0.2559   -6.3794 C.ar      1 <0>        -0.1114
     22 C16         2.9399    0.1379   -5.8050 C.ar      1 <0>        -0.1460
     23 C17         2.9643    0.7096   -4.5646 C.ar      1 <0>        -0.0666
     24 C18         1.7713    0.9012   -3.8626 C.ar      1 <0>        -0.0457
     25 N4          1.4741    1.4309   -2.6482 N.2       1 <0>        -0.1679
     26 H2         -3.2403    2.6574   10.0039 H         1 <0>         0.1085
     27 H3         -2.2364    4.1204   10.1447 H         1 <0>         0.1200
     28 H4         -3.7715    4.1775    9.2455 H         1 <0>         0.0833
     29 H5         -3.8055    3.2748    7.0383 H         1 <0>         0.2330
     30 H6         -0.8899    1.2978    7.0086 H         1 <0>         0.1657
     31 H7          0.2604    0.4919    4.9929 H         1 <0>         0.1628
     32 H8         -2.2394    3.0048    2.5737 H         1 <0>         0.1236
     33 H9         -3.3894    3.7971    4.5949 H         1 <0>         0.1309
     34 H10        -1.3118    2.3201    1.1497 H         1 <0>         0.2187
     35 H11        -0.0310    0.1130   -0.0607 H         1 <0>         0.0992
     36 H12         1.1504    1.4363    0.0852 H         1 <0>         0.1231
     37 H13        -1.5752    1.6256   -1.2757 H         1 <0>         0.0854
     38 H14        -0.3938    2.9489   -1.1298 H         1 <0>         0.1137
     39 H15        -0.3810   -0.3843   -6.1572 H         1 <0>         0.1256
     40 H16         1.7369   -0.7059   -7.3612 H         1 <0>         0.1325
     41 H17         3.8640   -0.0088   -6.3442 H         1 <0>         0.1334
     42 H18         3.9040    1.0128   -4.1271 H         1 <0>         0.1433
@<TRIPOS>BOND
     1    1    2 1
     2    1   26 1
     3    1   27 1
     4    1   28 1
     5    2    3 2
     6    2    4 am
     7    4    5 1
     8    4   29 1
     9    5   10 ar
    10    5    6 ar
    11    6    7 ar
    12    6   30 1
    13    7    8 ar
    14    7   31 1
    15    8    9 ar
    16    8   11 1
    17    9   10 ar
    18    9   32 1
    19   10   33 1
    20   11   12 2
    21   11   13 am
    22   13   14 1
    23   13   34 1
    24   14   15 1
    25   14   35 1
    26   14   36 1
    27   15   16 1
    28   15   37 1
    29   15   38 1
    30   16   25 2
    31   16   17 1
    32   17   18 1
    33   17   19 1
    34   19   24 ar
    35   19   20 ar
    36   20   21 ar
    37   20   39 1
    38   21   22 ar
    39   21   40 1
    40   22   23 ar
    41   22   41 1
    42   23   24 ar
    43   23   42 1
    44   24   25 1
@<TRIPOS>MOLECULE
ZINC00545600
   43    45     0     0     0
SMALL
USER_CHARGES

@<TRIPOS>ATOM
      1 C1         -2.9074    3.5609    9.4931 C.3       1 <0>        -0.2372
      2 C2         -2.1804    3.1838    8.2280 C.2       1 <0>         0.3019
      3 O1         -0.9821    2.9983    8.2496 O.2       1 <0>        -0.3431
      4 N1         -2.8619    3.0526    7.0727 N.am      1 <0>        -0.3323
      5 C3         -2.2106    2.5973    5.9269 C.ar      1 <0>         0.1088
      6 C4         -1.1823    1.6666    6.0365 C.ar      1 <0>        -0.1376
      7 C5         -0.5375    1.2147    4.9072 C.ar      1 <0>        -0.0365
      8 C6         -0.9169    1.6920    3.6497 C.ar      1 <0>        -0.1669
      9 C7         -1.9466    2.6308    3.5436 C.ar      1 <0>        -0.0861
     10 C8         -2.5908    3.0746    4.6765 C.ar      1 <0>        -0.1739
     11 C9         -0.2274    1.2102    2.4369 C.2       1 <0>         0.3615
     12 O2          0.6716    0.3971    2.5311 O.2       1 <0>        -0.3566
     13 N2         -0.5945    1.6714    1.2249 N.am      1 <0>        -0.4048
     14 C10         0.0898    1.1932    0.0210 C.3       1 <0>         0.0017
     15 C11        -0.5146    1.8687   -1.2115 C.3       1 <0>        -0.1515
     16 C12         0.1893    1.3767   -2.4499 C.cat     1 <0>         0.1358
     17 N3         -0.4265    0.8166   -3.5258 N.pl3     1 <0>        -0.1472
     18 H1         -1.4086    0.6611   -3.6321 H         1 <0>         0.3084
     19 C13         0.5557    0.5026   -4.4437 C.ar      1 <0>        -0.0145
     20 C14         0.5504   -0.0764   -5.7055 C.ar      1 <0>        -0.1020
     21 C15         1.7395   -0.2559   -6.3794 C.ar      1 <0>        -0.0678
     22 C16         2.9399    0.1379   -5.8050 C.ar      1 <0>        -0.0826
     23 C17         2.9643    0.7096   -4.5646 C.ar      1 <0>        -0.0872
     24 C18         1.7713    0.9012   -3.8626 C.ar      1 <0>        -0.0510
     25 H2         -3.2403    2.6574   10.0039 H         1 <0>         0.1138
     26 H3         -2.2364    4.1204   10.1447 H         1 <0>         0.1257
     27 H4         -3.7715    4.1775    9.2455 H         1 <0>         0.0868
     28 H5         -3.8055    3.2748    7.0383 H         1 <0>         0.2385
     29 H6         -0.8899    1.2978    7.0086 H         1 <0>         0.1754
     30 H7          0.2604    0.4919    4.9929 H         1 <0>         0.1639
     31 H8         -2.2394    3.0048    2.5737 H         1 <0>         0.1139
     32 H9         -3.3894    3.7971    4.5949 H         1 <0>         0.1384
     33 H10        -1.3118    2.3201    1.1497 H         1 <0>         0.2305
     34 H11        -0.0310    0.1130   -0.0607 H         1 <0>         0.1111
     35 H12         1.1504    1.4363    0.0852 H         1 <0>         0.0911
     36 H13        -1.5752    1.6256   -1.2757 H         1 <0>         0.1357
     37 H14        -0.3938    2.9489   -1.1298 H         1 <0>         0.1441
     38 H15        -0.3810   -0.3843   -6.1572 H         1 <0>         0.1643
     39 H16         1.7369   -0.7059   -7.3612 H         1 <0>         0.1727
     40 H17         3.8640   -0.0088   -6.3442 H         1 <0>         0.1728
     41 H18         3.9040    1.0128   -4.1271 H         1 <0>         0.1636
     42 N4          1.4748    1.4313   -2.6475 N.pl3     1 <0>        -0.1002
     43 H19         2.1597    1.8161   -1.9863 H         1 <0>         0.3185
@<TRIPOS>BOND
     1    1    2 1
     2    1   25 1
     3    1   26 1
     4    1   27 1
     5    2    3 2
     6    2    4 am
     7    4    5 1
     8    4   28 1
     9    5   10 ar
    10    5    6 ar
    11    6    7 ar
    12    6   29 1
    13    7    8 ar
    14    7   30 1
    15    8    9 ar
    16    8   11 1
    17    9   10 ar
    18    9   31 1
    19   10   32 1
    20   11   12 2
    21   11   13 am
    22   13   14 1
    23   13   33 1
    24   14   15 1
    25   14   34 1
    26   14   35 1
    27   15   16 1
    28   15   36 1
    29   15   37 1
    30   16   17 1
    31   16   42 2
    32   17   18 1
    33   17   19 1
    34   19   24 ar
    35   19   20 ar
    36   20   21 ar
    37   20   38 1
    38   21   22 ar
    39   21   39 1
    40   22   23 ar
    41   22   40 1
    42   23   24 ar
    43   23   41 1
    44   24   42 1
    45   42   43 1
@<TRIPOS>MOLECULE
ZINC00545788
   38    41     0     0     0
SMALL
USER_CHARGES

@<TRIPOS>ATOM
      1 C1         -6.6373    6.3239    0.1117 C.3       1 <0>        -0.0626
      2 O1         -5.2115    6.2980    0.0198 O.3       1 <0>        -0.2106
      3 C2         -4.6102    5.0803    0.0911 C.ar      1 <0>         0.0655
      4 C3         -5.3841    3.9325    0.2470 C.ar      1 <0>        -0.1648
      5 C4         -4.7915    2.6927    0.3209 C.ar      1 <0>        -0.1157
      6 C5         -3.4062    2.5748    0.2401 C.ar      1 <0>         0.0241
      7 C6         -2.6215    3.7325    0.0831 C.ar      1 <0>        -0.0825
      8 C7         -3.2363    4.9866    0.0094 C.ar      1 <0>        -0.1075
      9 C8         -1.2296    3.2871    0.0320 C.2       1 <0>         0.0305
     10 C9         -1.2453    1.9093    0.1525 C.2       1 <0>        -0.1377
     11 N1         -2.5585    1.4884    0.2832 N.pl3     1 <0>        -0.1599
     12 H1         -2.8402    0.5659    0.3860 H         1 <0>         0.2614
     13 C10        -0.0095    1.2142    0.1411 C.2       1 <0>         0.3637
     14 O2          0.0140    0.0013    0.2500 O.2       1 <0>        -0.3497
     15 N2          1.1385    1.9066    0.0032 N.am      1 <0>        -0.2504
     16 C11         1.1314    3.2454   -0.1182 C.2       1 <0>         0.4104
     17 O3          2.1863    3.8378   -0.2414 O.2       1 <0>        -0.3564
     18 N3         -0.0198    3.9439   -0.1067 N.am      1 <0>        -0.2803
     19 H2         -0.0003    4.9395   -0.1986 H         1 <0>         0.2776
     20 N4          2.3594    1.2198   -0.0135 N.2       1 <0>         0.0069
     21 C12         2.6385    0.4163   -0.9934 C.2       1 <0>        -0.0236
     22 C13         3.8712   -0.3928   -0.9555 C.ar      1 <0>        -0.0276
     23 C14         4.7574   -0.3049    0.1260 C.ar      1 <0>        -0.1383
     24 C15         5.8962   -1.0831    0.1217 C.ar      1 <0>        -0.0517
     25 N5          6.1597   -1.8933   -0.8858 N.ar      1 <0>        -0.1515
     26 C16         5.3551   -2.0034   -1.9256 C.ar      1 <0>        -0.0501
     27 C17         4.1918   -1.2664   -2.0027 C.ar      1 <0>        -0.1603
     28 H3         -7.0646    5.7381   -0.7022 H         1 <0>         0.0671
     29 H4         -6.9476    5.8995    1.0666 H         1 <0>         0.0676
     30 H5         -6.9874    7.3537    0.0409 H         1 <0>         0.1115
     31 H6         -6.4590    4.0164    0.3100 H         1 <0>         0.1428
     32 H7         -5.4017    1.8097    0.4414 H         1 <0>         0.1369
     33 H8         -2.6381    5.8777   -0.1109 H         1 <0>         0.1462
     34 H9          1.9682    0.3400   -1.8368 H         1 <0>         0.1341
     35 H10         4.5503    0.3592    0.9521 H         1 <0>         0.1647
     36 H11         6.5840   -1.0251    0.9523 H         1 <0>         0.1660
     37 H12         5.6111   -2.6797   -2.7278 H         1 <0>         0.1635
     38 H13         3.5379   -1.3617   -2.8569 H         1 <0>         0.1408
@<TRIPOS>BOND
     1    1    2 1
     2    1   28 1
     3    1   29 1
     4    1   30 1
     5    2    3 1
     6    3    8 ar
     7    3    4 ar
     8    4    5 ar
     9    4   31 1
    10    5    6 ar
    11    5   32 1
    12    6   11 1
    13    6    7 ar
    14    7    8 ar
    15    7    9 1
    16    8   33 1
    17    9   18 1
    18    9   10 2
    19   10   11 1
    20   10   13 1
    21   11   12 1
    22   13   14 2
    23   13   15 am
    24   15   16 am
    25   15   20 1
    26   16   17 2
    27   16   18 am
    28   18   19 1
    29   20   21 2
    30   21   22 1
    31   21   34 1
    32   22   27 ar
    33   22   23 ar
    34   23   24 ar
    35   23   35 1
    36   24   25 ar
    37   24   36 1
    38   25   26 ar
    39   26   27 ar
    40   26   37 1
    41   27   38 1
@<TRIPOS>MOLECULE
ZINC00545944
   38    41     0     0     0
SMALL
USER_CHARGES

@<TRIPOS>ATOM
      1 C1         -6.5694    6.4042    0.0884 C.3       1 <0>        -0.0625
      2 O1         -5.8310    5.1824    0.1521 O.3       1 <0>        -0.2107
      3 C2         -4.4775    5.2733    0.0565 C.ar      1 <0>         0.0651
      4 C3         -3.8750    6.5200   -0.0963 C.ar      1 <0>        -0.1651
      5 C4         -2.5067    6.6295   -0.1945 C.ar      1 <0>        -0.1159
      6 C5         -1.7093    5.4889   -0.1425 C.ar      1 <0>         0.0239
      7 C6         -2.3149    4.2280    0.0118 C.ar      1 <0>        -0.0825
      8 C7         -3.7066    4.1306    0.1109 C.ar      1 <0>        -0.1073
      9 C8         -1.2313    3.2462    0.0308 C.2       1 <0>         0.0304
     10 C9         -0.0497    3.9511   -0.1103 C.2       1 <0>        -0.1376
     11 N1         -0.3454    5.3004   -0.2140 N.pl3     1 <0>        -0.1602
     12 H1          0.3097    6.0076   -0.3214 H         1 <0>         0.2611
     13 C10         1.1715    3.2306   -0.1242 C.2       1 <0>         0.3635
     14 O2          2.2307    3.8194   -0.2471 O.2       1 <0>        -0.3506
     15 N2          1.1501    1.8888   -0.0005 N.am      1 <0>        -0.2485
     16 C11        -0.0096    1.2226    0.1356 C.2       1 <0>         0.4100
     17 O3          0.0086    0.0115    0.2448 O.2       1 <0>        -0.3562
     18 N3         -1.1913    1.8683    0.1481 N.am      1 <0>        -0.2807
     19 H2         -2.0417    1.3507    0.2424 H         1 <0>         0.2772
     20 N4          2.3563    1.1763   -0.0146 N.2       1 <0>        -0.0028
     21 C12         3.2098    1.3265    0.9513 C.2       1 <0>        -0.0152
     22 C13         4.5265    0.6658    0.8811 C.ar      1 <0>        -0.1273
     23 C14         5.4594    0.8245    1.9145 C.ar      1 <0>        -0.0615
     24 C15         6.6775    0.1785    1.8026 C.ar      1 <0>        -0.1991
     25 C16         6.9380   -0.5866    0.6796 C.ar      1 <0>        -0.0230
     26 N5          6.0429   -0.7140   -0.2810 N.ar      1 <0>        -0.1682
     27 C17         4.8672   -0.1240   -0.2191 C.ar      1 <0>         0.0079
     28 H3         -6.3755    6.8968   -0.8644 H         1 <0>         0.0676
     29 H4         -7.6345    6.1901    0.1766 H         1 <0>         0.1113
     30 H5         -6.2614    7.0578    0.9046 H         1 <0>         0.0670
     31 H6         -4.4872    7.4086   -0.1381 H         1 <0>         0.1425
     32 H7         -2.0507    7.6014   -0.3127 H         1 <0>         0.1367
     33 H8         -4.1757    3.1651    0.2297 H         1 <0>         0.1461
     34 H9          2.9560    1.9352    1.8065 H         1 <0>         0.1310
     35 H10         5.2315    1.4316    2.7782 H         1 <0>         0.1405
     36 H11         7.4192    0.2740    2.5818 H         1 <0>         0.1422
     37 H12         7.8901   -1.0881    0.5880 H         1 <0>         0.1623
     38 H13         4.1606   -0.2522   -1.0257 H         1 <0>         0.1885
@<TRIPOS>BOND
     1    1    2 1
     2    1   28 1
     3    1   29 1
     4    1   30 1
     5    2    3 1
     6    3    8 ar
     7    3    4 ar
     8    4    5 ar
     9    4   31 1
    10    5    6 ar
    11    5   32 1
    12    6   11 1
    13    6    7 ar
    14    7    8 ar
    15    7    9 1
    16    8   33 1
    17    9   18 1
    18    9   10 2
    19   10   11 1
    20   10   13 1
    21   11   12 1
    22   13   14 2
    23   13   15 am
    24   15   16 am
    25   15   20 1
    26   16   17 2
    27   16   18 am
    28   18   19 1
    29   20   21 2
    30   21   22 1
    31   21   34 1
    32   22   27 ar
    33   22   23 ar
    34   23   24 ar
    35   23   35 1
    36   24   25 ar
    37   24   36 1
    38   25   26 ar
    39   25   37 1
    40   26   27 ar
    41   27   38 1
@<TRIPOS>MOLECULE
ZINC00546362
   40    42     0     0     0
SMALL
USER_CHARGES

@<TRIPOS>ATOM
      1 C1         -0.5062    1.4120   -0.7930 C.3       1 <0>        -0.2108
      2 C2         -0.3489   -0.0878   -0.5343 C.3       1 <0>        -0.0192
      3 O1         -1.4222   -0.5437    0.2917 O.3       1 <0>        -0.1995
      4 C3         -1.4321   -1.8639    0.6182 C.ar      1 <0>         0.0790
      5 C4         -0.4324   -2.6981    0.1540 C.ar      1 <0>        -0.1928
      6 C5         -0.4458   -4.0540    0.4915 C.ar      1 <0>        -0.0666
      7 C6         -1.4696   -4.5599    1.2966 C.ar      1 <0>        -0.1711
      8 C7         -2.4633   -3.7214    1.7559 C.ar      1 <0>        -0.1173
      9 C8         -2.4466   -2.3742    1.4252 C.ar      1 <0>         0.0525
     10 O2         -3.4257   -1.5510    1.8853 O.3       1 <0>        -0.2738
     11 C9          0.6179   -4.9483   -0.0002 C.2       1 <0>        -0.1182
     12 N1          0.4640   -6.2357    0.0626 N.2       1 <0>         0.0212
     13 N2         -0.8236   -6.7877    0.0717 N.am      1 <0>        -0.3324
     14 C10        -0.9883   -8.1107    0.2688 C.2       1 <0>         0.3612
     15 O3         -0.0190   -8.8255    0.4389 O.2       1 <0>        -0.3253
     16 C11        -2.3445   -8.6921    0.2784 C.ar      1 <0>        -0.1233
     17 C12        -3.4608   -7.8670    0.0823 C.ar      1 <0>        -0.1303
     18 C13        -4.7177   -8.3912    0.0879 C.ar      1 <0>        -0.0756
     19 C14        -4.9048   -9.7639    0.2910 C.ar      1 <0>        -0.0264
     20 C15        -3.7889  -10.5980    0.4890 C.ar      1 <0>        -0.0661
     21 C16        -2.5130  -10.0615    0.4767 C.ar      1 <0>        -0.0509
     22 N3         -4.2924  -11.8737    0.6578 N.pl3     1 <0>        -0.2187
     23 H1         -3.7601  -12.7046    0.8200 H         1 <0>         0.2589
     24 C17        -5.6451  -11.7892    0.5625 C.2       1 <0>        -0.0154
     25 N4         -6.0035  -10.5558    0.3481 N.2       1 <0>        -0.1788
     26 H2          0.3125    1.7598   -1.4230 H         1 <0>         0.0879
     27 H3         -1.4554    1.5964   -1.2960 H         1 <0>         0.0884
     28 H4         -0.4876    1.9483    0.1558 H         1 <0>         0.0925
     29 H5         -0.3675   -0.6240   -1.4831 H         1 <0>         0.0722
     30 H6          0.6003   -0.2722   -0.0313 H         1 <0>         0.0769
     31 H7          0.3568   -2.3029   -0.4684 H         1 <0>         0.1434
     32 H8         -1.4824   -5.6073    1.5595 H         1 <0>         0.1537
     33 H9         -3.2540   -4.1136    2.3784 H         1 <0>         0.1498
     34 H10        -4.1928   -1.4868    1.3001 H         1 <0>         0.2269
     35 H11         1.5253   -4.5324   -0.4128 H         1 <0>         0.1838
     36 H12        -1.5966   -6.2176   -0.0639 H         1 <0>         0.2280
     37 H13        -3.3229   -6.8074   -0.0749 H         1 <0>         0.1276
     38 H14        -5.5712   -7.7473   -0.0648 H         1 <0>         0.1463
     39 H15        -1.6539  -10.6992    0.6238 H         1 <0>         0.1565
     40 H16        -6.3245  -12.6240    0.6514 H         1 <0>         0.2060
@<TRIPOS>BOND
     1    1    2 1
     2    1   26 1
     3    1   27 1
     4    1   28 1
     5    2    3 1
     6    2   29 1
     7    2   30 1
     8    3    4 1
     9    4    9 ar
    10    4    5 ar
    11    5    6 ar
    12    5   31 1
    13    6    7 ar
    14    6   11 1
    15    7    8 ar
    16    7   32 1
    17    8    9 ar
    18    8   33 1
    19    9   10 1
    20   10   34 1
    21   11   12 2
    22   11   35 1
    23   12   13 1
    24   13   14 am
    25   13   36 1
    26   14   15 2
    27   14   16 1
    28   16   21 ar
    29   16   17 ar
    30   17   18 ar
    31   17   37 1
    32   18   19 ar
    33   18   38 1
    34   19   25 1
    35   19   20 ar
    36   20   21 ar
    37   20   22 1
    38   21   39 1
    39   22   23 1
    40   22   24 1
    41   24   25 2
    42   24   40 1
@<TRIPOS>MOLECULE
ZINC00546362
   41    43     0     0     0
SMALL
USER_CHARGES

@<TRIPOS>ATOM
      1 C1         -0.5062    1.4120   -0.7930 C.3       1 <0>        -0.2107
      2 C2         -0.3489   -0.0878   -0.5343 C.3       1 <0>        -0.0218
      3 O1         -1.4222   -0.5437    0.2917 O.3       1 <0>        -0.1924
      4 C3         -1.4321   -1.8639    0.6182 C.ar      1 <0>         0.0888
      5 C4         -0.4324   -2.6981    0.1540 C.ar      1 <0>        -0.1827
      6 C5         -0.4458   -4.0540    0.4915 C.ar      1 <0>        -0.0801
      7 C6         -1.4696   -4.5599    1.2966 C.ar      1 <0>        -0.1802
      8 C7         -2.4633   -3.7214    1.7559 C.ar      1 <0>        -0.1257
      9 C8         -2.4466   -2.3742    1.4252 C.ar      1 <0>         0.0646
     10 O2         -3.4257   -1.5510    1.8853 O.3       1 <0>        -0.2673
     11 C9          0.6179   -4.9483   -0.0002 C.2       1 <0>        -0.0786
     12 N1          0.4640   -6.2357    0.0626 N.2       1 <0>         0.0099
     13 N2         -0.8236   -6.7877    0.0717 N.am      1 <0>        -0.3228
     14 C10        -0.9883   -8.1107    0.2688 C.2       1 <0>         0.3461
     15 O3         -0.0190   -8.8255    0.4389 O.2       1 <0>        -0.2914
     16 C11        -2.3445   -8.6921    0.2784 C.ar      1 <0>        -0.0629
     17 C12        -3.4608   -7.8670    0.0823 C.ar      1 <0>        -0.0725
     18 C13        -4.7177   -8.3912    0.0879 C.ar      1 <0>        -0.0931
     19 C14        -4.9048   -9.7639    0.2910 C.ar      1 <0>        -0.0430
     20 C15        -3.7889  -10.5980    0.4890 C.ar      1 <0>        -0.0219
     21 C16        -2.5130  -10.0615    0.4767 C.ar      1 <0>        -0.0424
     22 N3         -4.2924  -11.8737    0.6578 N.pl3     1 <0>        -0.1379
     23 H1         -3.7601  -12.7046    0.8200 H         1 <0>         0.3168
     24 C17        -5.6451  -11.7892    0.5625 C.cat     1 <0>         0.0891
     25 H2          0.3125    1.7598   -1.4230 H         1 <0>         0.0951
     26 H3         -1.4554    1.5964   -1.2960 H         1 <0>         0.0904
     27 H4         -0.4876    1.9483    0.1558 H         1 <0>         0.0973
     28 H5         -0.3675   -0.6240   -1.4831 H         1 <0>         0.0717
     29 H6          0.6003   -0.2722   -0.0313 H         1 <0>         0.0804
     30 H7          0.3568   -2.3029   -0.4684 H         1 <0>         0.1515
     31 H8         -1.4824   -5.6073    1.5595 H         1 <0>         0.1375
     32 H9         -3.2540   -4.1136    2.3784 H         1 <0>         0.1450
     33 H10        -4.1928   -1.4868    1.3001 H         1 <0>         0.2304
     34 H11         1.5253   -4.5324   -0.4128 H         1 <0>         0.1976
     35 H12        -1.5966   -6.2176   -0.0639 H         1 <0>         0.2227
     36 H13        -3.3229   -6.8074   -0.0749 H         1 <0>         0.1675
     37 H14        -5.5712   -7.7473   -0.0648 H         1 <0>         0.1648
     38 H15        -1.6539  -10.6992    0.6238 H         1 <0>         0.1931
     39 H16        -6.3245  -12.6240    0.6514 H         1 <0>         0.2504
     40 N4         -6.0049  -10.5553    0.3479 N.pl3     1 <0>        -0.1027
     41 H17        -6.9732  -10.2317    0.2387 H         1 <0>         0.3199
@<TRIPOS>BOND
     1    1    2 1
     2    1   25 1
     3    1   26 1
     4    1   27 1
     5    2    3 1
     6    2   28 1
     7    2   29 1
     8    3    4 1
     9    4    9 ar
    10    4    5 ar
    11    5    6 ar
    12    5   30 1
    13    6    7 ar
    14    6   11 1
    15    7    8 ar
    16    7   31 1
    17    8    9 ar
    18    8   32 1
    19    9   10 1
    20   10   33 1
    21   11   12 2
    22   11   34 1
    23   12   13 1
    24   13   14 am
    25   13   35 1
    26   14   15 2
    27   14   16 1
    28   16   21 ar
    29   16   17 ar
    30   17   18 ar
    31   17   36 1
    32   18   19 ar
    33   18   37 1
    34   19   20 ar
    35   19   40 1
    36   20   21 ar
    37   20   22 1
    38   21   38 1
    39   22   23 1
    40   22   24 1
    41   24   39 1
    42   24   40 2
    43   40   41 1
@<TRIPOS>MOLECULE
ZINC00546362
   40    42     0     0     0
SMALL
USER_CHARGES

@<TRIPOS>ATOM
      1 C1         -0.5062    1.4120   -0.7930 C.3       1 <0>        -0.2108
      2 C2         -0.3489   -0.0878   -0.5343 C.3       1 <0>        -0.0193
      3 O1         -1.4222   -0.5437    0.2917 O.3       1 <0>        -0.1999
      4 C3         -1.4321   -1.8639    0.6182 C.ar      1 <0>         0.0792
      5 C4         -0.4324   -2.6981    0.1540 C.ar      1 <0>        -0.1932
      6 C5         -0.4458   -4.0540    0.4915 C.ar      1 <0>        -0.0642
      7 C6         -1.4696   -4.5599    1.2966 C.ar      1 <0>        -0.1718
      8 C7         -2.4633   -3.7214    1.7559 C.ar      1 <0>        -0.1182
      9 C8         -2.4466   -2.3742    1.4252 C.ar      1 <0>         0.0505
     10 O2         -3.4257   -1.5510    1.8853 O.3       1 <0>        -0.2737
     11 C9          0.6179   -4.9483   -0.0002 C.2       1 <0>        -0.1215
     12 N1          0.4640   -6.2357    0.0626 N.2       1 <0>         0.0250
     13 N2         -0.8236   -6.7877    0.0717 N.am      1 <0>        -0.3345
     14 C10        -0.9883   -8.1107    0.2688 C.2       1 <0>         0.3613
     15 O3         -0.0190   -8.8255    0.4389 O.2       1 <0>        -0.3188
     16 C11        -2.3445   -8.6921    0.2784 C.ar      1 <0>        -0.1489
     17 C12        -3.4608   -7.8670    0.0823 C.ar      1 <0>        -0.1052
     18 C13        -4.7177   -8.3912    0.0879 C.ar      1 <0>        -0.1265
     19 C14        -4.9048   -9.7639    0.2910 C.ar      1 <0>        -0.0617
     20 C15        -3.7889  -10.5980    0.4890 C.ar      1 <0>        -0.0577
     21 C16        -2.5130  -10.0615    0.4767 C.ar      1 <0>         0.0045
     22 N3         -4.2924  -11.8737    0.6578 N.2       1 <0>        -0.1628
     23 H1         -6.9465  -10.2405    0.2417 H         1 <0>         0.2520
     24 C17        -5.6451  -11.7892    0.5625 C.2       1 <0>        -0.0533
     25 N4         -6.0035  -10.5558    0.3481 N.pl3     1 <0>        -0.1639
     26 H2          0.3125    1.7598   -1.4230 H         1 <0>         0.0882
     27 H3         -1.4554    1.5964   -1.2960 H         1 <0>         0.0880
     28 H4         -0.4876    1.9483    0.1558 H         1 <0>         0.0926
     29 H5         -0.3675   -0.6240   -1.4831 H         1 <0>         0.0721
     30 H6          0.6003   -0.2722   -0.0313 H         1 <0>         0.0774
     31 H7          0.3568   -2.3029   -0.4684 H         1 <0>         0.1437
     32 H8         -1.4824   -5.6073    1.5595 H         1 <0>         0.1545
     33 H9         -3.2540   -4.1136    2.3784 H         1 <0>         0.1482
     34 H10        -4.1928   -1.4868    1.3001 H         1 <0>         0.2255
     35 H11         1.5253   -4.5324   -0.4128 H         1 <0>         0.1839
     36 H12        -1.5966   -6.2176   -0.0639 H         1 <0>         0.2257
     37 H13        -3.3229   -6.8074   -0.0749 H         1 <0>         0.1271
     38 H14        -5.5712   -7.7473   -0.0648 H         1 <0>         0.1280
     39 H15        -1.6539  -10.6992    0.6238 H         1 <0>         0.1734
     40 H16        -6.3245  -12.6240    0.6516 H         1 <0>         0.2051
@<TRIPOS>BOND
     1    1    2 1
     2    1   26 1
     3    1   27 1
     4    1   28 1
     5    2    3 1
     6    2   29 1
     7    2   30 1
     8    3    4 1
     9    4    9 ar
    10    4    5 ar
    11    5    6 ar
    12    5   31 1
    13    6    7 ar
    14    6   11 1
    15    7    8 ar
    16    7   32 1
    17    8    9 ar
    18    8   33 1
    19    9   10 1
    20   10   34 1
    21   11   12 2
    22   11   35 1
    23   12   13 1
    24   13   14 am
    25   13   36 1
    26   14   15 2
    27   14   16 1
    28   16   21 ar
    29   16   17 ar
    30   17   18 ar
    31   17   37 1
    32   18   19 ar
    33   18   38 1
    34   19   25 1
    35   19   20 ar
    36   20   21 ar
    37   20   22 1
    38   21   39 1
    39   22   24 2
    40   23   25 1
    41   24   40 1
    42   24   25 1
@<TRIPOS>MOLECULE
ZINC00546591
   38    40     0     0     0
SMALL
USER_CHARGES

@<TRIPOS>ATOM
      1 C1          0.9161   -0.8676    2.0647 C.3       1 <0>        -0.0509
      2 O1         -0.2671   -0.1931    1.5615 O.3       1 <0>        -0.2673
      3 C2         -0.4235    1.1019    1.8997 C.2       1 <0>         0.3465
      4 O2          0.4062    1.6523    2.5960 O.2       1 <0>        -0.3563
      5 C3         -1.6051    1.8496    1.4295 C.ar      1 <0>        -0.1060
      6 C4         -2.5570    1.2176    0.6233 C.ar      1 <0>        -0.0754
      7 C5         -3.6535    1.9082    0.1919 C.ar      1 <0>        -0.1252
      8 C6         -3.8189    3.2510    0.5478 C.ar      1 <0>        -0.0629
      9 C7         -2.8638    3.8844    1.3499 C.ar      1 <0>        -0.1631
     10 C8         -1.7701    3.1919    1.7854 C.ar      1 <0>        -0.0613
     11 C9         -4.9986    3.9975    0.0783 C.2       1 <0>        -0.1268
     12 N1         -5.0191    5.2938    0.1540 N.2       1 <0>         0.0288
     13 N2         -3.8178    6.0147    0.1529 N.am      1 <0>        -0.3334
     14 C10        -3.8305    7.3459    0.3633 C.2       1 <0>         0.3620
     15 O3         -4.8848    7.9213    0.5542 O.2       1 <0>        -0.3233
     16 C11        -2.5654    8.1050    0.3621 C.ar      1 <0>        -0.1253
     17 C12        -1.3507    7.4404    0.1420 C.ar      1 <0>        -0.1302
     18 C13        -0.1762    8.1296    0.1380 C.ar      1 <0>        -0.0735
     19 C14        -0.1734    9.5129    0.3547 C.ar      1 <0>        -0.0252
     20 C15        -1.3888   10.1866    0.5768 C.ar      1 <0>        -0.0666
     21 C16        -2.5805    9.4828    0.5743 C.ar      1 <0>        -0.0504
     22 N3         -1.0597   11.5169    0.7543 N.pl3     1 <0>        -0.2188
     23 H1         -1.6969   12.2666    0.9330 H         1 <0>         0.2588
     24 C17         0.2904   11.6169    0.6409 C.2       1 <0>        -0.0149
     25 N4          0.8090   10.4455    0.4072 N.2       1 <0>        -0.1779
     26 H2          0.9193   -1.9016    1.7197 H         1 <0>         0.1046
     27 H3          1.8078   -0.3594    1.6977 H         1 <0>         0.0839
     28 H4          0.9095   -0.8483    3.1545 H         1 <0>         0.0845
     29 H5         -2.4270    0.1822    0.3450 H         1 <0>         0.1530
     30 H6         -4.3908    1.4189   -0.4273 H         1 <0>         0.1409
     31 H7         -2.9913    4.9210    1.6250 H         1 <0>         0.1571
     32 H8         -1.0329    3.6808    2.4049 H         1 <0>         0.1610
     33 H9         -5.8466    3.4668   -0.3288 H         1 <0>         0.1872
     34 H10        -2.9769    5.5557    0.0007 H         1 <0>         0.2282
     35 H11        -1.3465    6.3736   -0.0261 H         1 <0>         0.1275
     36 H12         0.7542    7.6085   -0.0329 H         1 <0>         0.1484
     37 H13        -3.5158    9.9971    0.7393 H         1 <0>         0.1561
     38 H14         0.8521   12.5350    0.7308 H         1 <0>         0.2062
@<TRIPOS>BOND
     1    1    2 1
     2    1   26 1
     3    1   27 1
     4    1   28 1
     5    2    3 1
     6    3    4 2
     7    3    5 1
     8    5   10 ar
     9    5    6 ar
    10    6    7 ar
    11    6   29 1
    12    7    8 ar
    13    7   30 1
    14    8    9 ar
    15    8   11 1
    16    9   10 ar
    17    9   31 1
    18   10   32 1
    19   11   12 2
    20   11   33 1
    21   12   13 1
    22   13   14 am
    23   13   34 1
    24   14   15 2
    25   14   16 1
    26   16   21 ar
    27   16   17 ar
    28   17   18 ar
    29   17   35 1
    30   18   19 ar
    31   18   36 1
    32   19   25 1
    33   19   20 ar
    34   20   21 ar
    35   20   22 1
    36   21   37 1
    37   22   23 1
    38   22   24 1
    39   24   25 2
    40   24   38 1
@<TRIPOS>MOLECULE
ZINC00550502
   40    42     0     0     0
SMALL
USER_CHARGES

@<TRIPOS>ATOM
      1 C1          3.3131    6.4915    0.2054 C.3       1 <0>        -0.2111
      2 C2          2.1028    5.7197    0.7350 C.3       1 <0>        -0.0182
      3 O1          2.1359    4.3811    0.2359 O.3       1 <0>        -0.2016
      4 C3          1.1235    3.5557    0.6148 C.ar      1 <0>         0.0761
      5 C4          0.1210    4.0261    1.4488 C.ar      1 <0>        -0.2029
      6 C5         -0.9125    3.1921    1.8386 C.ar      1 <0>        -0.0953
      7 C6         -0.9550    1.8851    1.4011 C.ar      1 <0>        -0.1694
      8 C7          0.0486    1.3971    0.5600 C.ar      1 <0>        -0.0862
      9 C8          1.0971    2.2395    0.1706 C.ar      1 <0>         0.0611
     10 O2          2.0815    1.7733   -0.6422 O.3       1 <0>        -0.2737
     11 C9          0.0069    0.0008    0.0901 C.2       1 <0>        -0.1089
     12 N1         -1.1064   -0.6656    0.1331 N.2       1 <0>         0.0187
     13 N2         -2.3306    0.0156    0.1411 N.am      1 <0>        -0.3356
     14 C10        -3.4789   -0.6644    0.3297 C.2       1 <0>         0.3617
     15 O3         -3.4627   -1.8788    0.3954 O.2       1 <0>        -0.3243
     16 C11        -4.7556    0.0644    0.4566 C.ar      1 <0>        -0.1232
     17 C12        -4.7926    1.4513    0.2552 C.ar      1 <0>        -0.1302
     18 C13        -5.9645    2.1356    0.3689 C.ar      1 <0>        -0.0763
     19 C14        -7.1459    1.4559    0.6896 C.ar      1 <0>        -0.0271
     20 C15        -7.1162    0.0639    0.8936 C.ar      1 <0>        -0.0659
     21 C16        -5.9238   -0.6282    0.7709 C.ar      1 <0>        -0.0518
     22 N3         -8.4145   -0.3053    1.1896 N.pl3     1 <0>        -0.2187
     23 H1         -8.7371   -1.2307    1.3886 H         1 <0>         0.2588
     24 C17        -9.1712    0.8227    1.1600 C.2       1 <0>        -0.0159
     25 N4         -8.4298    1.8526    0.8677 N.2       1 <0>        -0.1792
     26 H2          4.2292    6.0026    0.5370 H         1 <0>         0.0925
     27 H3          3.2845    6.5090   -0.8841 H         1 <0>         0.0882
     28 H4          3.2879    7.5125    0.5861 H         1 <0>         0.0881
     29 H5          1.1867    6.2086    0.4034 H         1 <0>         0.0724
     30 H6          2.1314    5.7021    1.8245 H         1 <0>         0.0773
     31 H7          0.1464    5.0486    1.7959 H         1 <0>         0.1414
     32 H8         -1.6892    3.5667    2.4889 H         1 <0>         0.1378
     33 H9         -1.7636    1.2386    1.7087 H         1 <0>         0.1531
     34 H10         1.9370    1.9574   -1.5805 H         1 <0>         0.2295
     35 H11         0.9025   -0.4680   -0.2901 H         1 <0>         0.1973
     36 H12        -2.3518    0.9766    0.0109 H         1 <0>         0.2256
     37 H13        -3.8846    1.9811    0.0076 H         1 <0>         0.1283
     38 H14        -5.9827    3.2039    0.2111 H         1 <0>         0.1459
     39 H15        -5.8979   -1.6973    0.9217 H         1 <0>         0.1563
     40 H16       -10.2336    0.8598    1.3506 H         1 <0>         0.2058
@<TRIPOS>BOND
     1    1    2 1
     2    1   26 1
     3    1   27 1
     4    1   28 1
     5    2    3 1
     6    2   29 1
     7    2   30 1
     8    3    4 1
     9    4    9 ar
    10    4    5 ar
    11    5    6 ar
    12    5   31 1
    13    6    7 ar
    14    6   32 1
    15    7    8 ar
    16    7   33 1
    17    8    9 ar
    18    8   11 1
    19    9   10 1
    20   10   34 1
    21   11   12 2
    22   11   35 1
    23   12   13 1
    24   13   14 am
    25   13   36 1
    26   14   15 2
    27   14   16 1
    28   16   21 ar
    29   16   17 ar
    30   17   18 ar
    31   17   37 1
    32   18   19 ar
    33   18   38 1
    34   19   25 1
    35   19   20 ar
    36   20   21 ar
    37   20   22 1
    38   21   39 1
    39   22   23 1
    40   22   24 1
    41   24   25 2
    42   24   40 1
@<TRIPOS>MOLECULE
ZINC00550502
   41    43     0     0     0
SMALL
USER_CHARGES

@<TRIPOS>ATOM
      1 C1          3.3131    6.4915    0.2054 C.3       1 <0>        -0.2111
      2 C2          2.1028    5.7197    0.7350 C.3       1 <0>        -0.0203
      3 O1          2.1359    4.3811    0.2359 O.3       1 <0>        -0.1938
      4 C3          1.1235    3.5557    0.6148 C.ar      1 <0>         0.0859
      5 C4          0.1210    4.0261    1.4488 C.ar      1 <0>        -0.1949
      6 C5         -0.9125    3.1921    1.8386 C.ar      1 <0>        -0.1015
      7 C6         -0.9550    1.8851    1.4011 C.ar      1 <0>        -0.1796
      8 C7          0.0486    1.3971    0.5600 C.ar      1 <0>        -0.1020
      9 C8          1.0971    2.2395    0.1706 C.ar      1 <0>         0.0755
     10 O2          2.0815    1.7733   -0.6422 O.3       1 <0>        -0.2681
     11 C9          0.0069    0.0008    0.0901 C.2       1 <0>        -0.0696
     12 N1         -1.1064   -0.6656    0.1331 N.2       1 <0>         0.0075
     13 N2         -2.3306    0.0156    0.1411 N.am      1 <0>        -0.3255
     14 C10        -3.4789   -0.6644    0.3297 C.2       1 <0>         0.3464
     15 O3         -3.4627   -1.8788    0.3954 O.2       1 <0>        -0.2902
     16 C11        -4.7556    0.0644    0.4566 C.ar      1 <0>        -0.0629
     17 C12        -4.7926    1.4513    0.2552 C.ar      1 <0>        -0.0723
     18 C13        -5.9645    2.1356    0.3689 C.ar      1 <0>        -0.0937
     19 C14        -7.1459    1.4559    0.6896 C.ar      1 <0>        -0.0437
     20 C15        -7.1162    0.0639    0.8936 C.ar      1 <0>        -0.0219
     21 C16        -5.9238   -0.6282    0.7709 C.ar      1 <0>        -0.0431
     22 N3         -8.4145   -0.3053    1.1896 N.pl3     1 <0>        -0.1378
     23 H1         -8.7371   -1.2307    1.3886 H         1 <0>         0.3167
     24 C17        -9.1712    0.8227    1.1600 C.cat     1 <0>         0.0886
     25 H2          4.2292    6.0026    0.5370 H         1 <0>         0.0979
     26 H3          3.2845    6.5090   -0.8841 H         1 <0>         0.0908
     27 H4          3.2879    7.5125    0.5861 H         1 <0>         0.0944
     28 H5          1.1867    6.2086    0.4034 H         1 <0>         0.0704
     29 H6          2.1314    5.7021    1.8245 H         1 <0>         0.0805
     30 H7          0.1464    5.0486    1.7959 H         1 <0>         0.1484
     31 H8         -1.6892    3.5667    2.4889 H         1 <0>         0.1324
     32 H9         -1.7636    1.2386    1.7087 H         1 <0>         0.1372
     33 H10         1.9370    1.9574   -1.5805 H         1 <0>         0.2359
     34 H11         0.9025   -0.4680   -0.2901 H         1 <0>         0.2109
     35 H12        -2.3518    0.9766    0.0109 H         1 <0>         0.2204
     36 H13        -3.8846    1.9811    0.0076 H         1 <0>         0.1681
     37 H14        -5.9827    3.2039    0.2111 H         1 <0>         0.1644
     38 H15        -5.8979   -1.6973    0.9217 H         1 <0>         0.1930
     39 H16       -10.2336    0.8598    1.3506 H         1 <0>         0.2502
     40 N4         -8.4303    1.8540    0.8676 N.pl3     1 <0>        -0.1028
     41 H17        -8.7673    2.8204    0.7846 H         1 <0>         0.3196
@<TRIPOS>BOND
     1    1    2 1
     2    1   25 1
     3    1   26 1
     4    1   27 1
     5    2    3 1
     6    2   28 1
     7    2   29 1
     8    3    4 1
     9    4    9 ar
    10    4    5 ar
    11    5    6 ar
    12    5   30 1
    13    6    7 ar
    14    6   31 1
    15    7    8 ar
    16    7   32 1
    17    8    9 ar
    18    8   11 1
    19    9   10 1
    20   10   33 1
    21   11   12 2
    22   11   34 1
    23   12   13 1
    24   13   14 am
    25   13   35 1
    26   14   15 2
    27   14   16 1
    28   16   21 ar
    29   16   17 ar
    30   17   18 ar
    31   17   36 1
    32   18   19 ar
    33   18   37 1
    34   19   20 ar
    35   19   40 1
    36   20   21 ar
    37   20   22 1
    38   21   38 1
    39   22   23 1
    40   22   24 1
    41   24   39 1
    42   24   40 2
    43   40   41 1
@<TRIPOS>MOLECULE
ZINC00550502
   40    42     0     0     0
SMALL
USER_CHARGES

@<TRIPOS>ATOM
      1 C1          3.3131    6.4915    0.2054 C.3       1 <0>        -0.2112
      2 C2          2.1028    5.7197    0.7350 C.3       1 <0>        -0.0180
      3 O1          2.1359    4.3811    0.2359 O.3       1 <0>        -0.2014
      4 C3          1.1235    3.5557    0.6148 C.ar      1 <0>         0.0759
      5 C4          0.1210    4.0261    1.4488 C.ar      1 <0>        -0.2044
      6 C5         -0.9125    3.1921    1.8386 C.ar      1 <0>        -0.0966
      7 C6         -0.9550    1.8851    1.4011 C.ar      1 <0>        -0.1696
      8 C7          0.0486    1.3971    0.5600 C.ar      1 <0>        -0.0841
      9 C8          1.0971    2.2395    0.1706 C.ar      1 <0>         0.0610
     10 O2          2.0815    1.7733   -0.6422 O.3       1 <0>        -0.2732
     11 C9          0.0069    0.0008    0.0901 C.2       1 <0>        -0.1121
     12 N1         -1.1064   -0.6656    0.1331 N.2       1 <0>         0.0223
     13 N2         -2.3306    0.0156    0.1411 N.am      1 <0>        -0.3378
     14 C10        -3.4789   -0.6644    0.3297 C.2       1 <0>         0.3618
     15 O3         -3.4627   -1.8788    0.3954 O.2       1 <0>        -0.3178
     16 C11        -4.7556    0.0644    0.4566 C.ar      1 <0>        -0.1490
     17 C12        -4.7926    1.4513    0.2552 C.ar      1 <0>        -0.1049
     18 C13        -5.9645    2.1356    0.3689 C.ar      1 <0>        -0.1274
     19 C14        -7.1459    1.4559    0.6896 C.ar      1 <0>        -0.0621
     20 C15        -7.1162    0.0639    0.8936 C.ar      1 <0>        -0.0577
     21 C16        -5.9238   -0.6282    0.7709 C.ar      1 <0>         0.0037
     22 N3         -8.4145   -0.3053    1.1896 N.2       1 <0>        -0.1628
     23 H1         -8.7580    2.7938    0.7869 H         1 <0>         0.2517
     24 C17        -9.1712    0.8227    1.1600 C.2       1 <0>        -0.0537
     25 N4         -8.4298    1.8526    0.8677 N.pl3     1 <0>        -0.1642
     26 H2          4.2292    6.0026    0.5370 H         1 <0>         0.0929
     27 H3          3.2845    6.5090   -0.8841 H         1 <0>         0.0881
     28 H4          3.2879    7.5125    0.5861 H         1 <0>         0.0878
     29 H5          1.1867    6.2086    0.4034 H         1 <0>         0.0714
     30 H6          2.1314    5.7021    1.8245 H         1 <0>         0.0774
     31 H7          0.1464    5.0486    1.7959 H         1 <0>         0.1405
     32 H8         -1.6892    3.5667    2.4889 H         1 <0>         0.1361
     33 H9         -1.7636    1.2386    1.7087 H         1 <0>         0.1540
     34 H10         1.9370    1.9574   -1.5805 H         1 <0>         0.2293
     35 H11         0.9025   -0.4680   -0.2901 H         1 <0>         0.1974
     36 H12        -2.3518    0.9766    0.0109 H         1 <0>         0.2233
     37 H13        -3.8846    1.9811    0.0076 H         1 <0>         0.1278
     38 H14        -5.9827    3.2039    0.2111 H         1 <0>         0.1277
     39 H15        -5.8979   -1.6973    0.9217 H         1 <0>         0.1733
     40 H16       -10.2335    0.8599    1.3512 H         1 <0>         0.2049
@<TRIPOS>BOND
     1    1    2 1
     2    1   26 1
     3    1   27 1
     4    1   28 1
     5    2    3 1
     6    2   29 1
     7    2   30 1
     8    3    4 1
     9    4    9 ar
    10    4    5 ar
    11    5    6 ar
    12    5   31 1
    13    6    7 ar
    14    6   32 1
    15    7    8 ar
    16    7   33 1
    17    8    9 ar
    18    8   11 1
    19    9   10 1
    20   10   34 1
    21   11   12 2
    22   11   35 1
    23   12   13 1
    24   13   14 am
    25   13   36 1
    26   14   15 2
    27   14   16 1
    28   16   21 ar
    29   16   17 ar
    30   17   18 ar
    31   17   37 1
    32   18   19 ar
    33   18   38 1
    34   19   25 1
    35   19   20 ar
    36   20   21 ar
    37   20   22 1
    38   21   39 1
    39   22   24 2
    40   23   25 1
    41   24   40 1
    42   24   25 1
@<TRIPOS>MOLECULE
ZINC00552242
   41    43     0     0     0
SMALL
USER_CHARGES

@<TRIPOS>ATOM
      1 C1          0.2353    5.5866   -2.1413 C.3       1 <0>        -0.0705
      2 O1         -1.1892    5.5582   -2.0307 O.3       1 <0>        -0.1939
      3 C2         -1.7475    4.4207   -1.5366 C.ar      1 <0>         0.1085
      4 C3         -0.9384    3.3889   -1.0960 C.ar      1 <0>        -0.2655
      5 C4         -1.5127    2.2207   -0.5886 C.ar      1 <0>        -0.0306
      6 C5         -2.9032    2.0963   -0.5332 C.ar      1 <0>        -0.2281
      7 C6         -3.7069    3.1340   -0.9700 C.ar      1 <0>         0.1078
      8 C7         -3.1319    4.2960   -1.4753 C.ar      1 <0>         0.0198
      9 O2         -3.9250    5.3122   -1.9098 O.3       1 <0>        -0.2594
     10 O3         -5.0605    3.0158   -0.9112 O.3       1 <0>        -0.1942
     11 C8         -5.5827    1.8413   -0.2869 C.3       1 <0>        -0.0657
     12 C9         -0.6534    1.1193   -0.1181 C.2       1 <0>        -0.1189
     13 N1          0.5804    1.3536    0.2107 N.2       1 <0>         0.0237
     14 N2          0.9775    2.6504    0.5618 N.am      1 <0>        -0.3354
     15 C10         2.2784    2.9180    0.7909 C.2       1 <0>         0.3610
     16 O4          3.0950    2.0166    0.7849 O.2       1 <0>        -0.3244
     17 C11         2.7121    4.3046    1.0491 C.ar      1 <0>        -0.1262
     18 C12         1.7600    5.3291    1.1451 C.ar      1 <0>        -0.1362
     19 C13         2.1471    6.6128    1.3835 C.ar      1 <0>        -0.0745
     20 C14         3.5048    6.9199    1.5347 C.ar      1 <0>        -0.0269
     21 C15         4.4661    5.8967    1.4391 C.ar      1 <0>        -0.0667
     22 C16         4.0674    4.5924    1.2028 C.ar      1 <0>        -0.0518
     23 N3          5.6914    6.5065    1.6294 N.pl3     1 <0>        -0.2188
     24 H1          6.5848    6.0572    1.6224 H         1 <0>         0.2590
     25 C17         5.4567    7.8299    1.8278 C.2       1 <0>        -0.0150
     26 N4          4.1784    8.0720    1.7725 N.2       1 <0>        -0.1774
     27 H2          0.5528    6.5680   -2.4936 H         1 <0>         0.1169
     28 H3          0.6795    5.3896   -1.1657 H         1 <0>         0.0698
     29 H4          0.5600    4.8240   -2.8491 H         1 <0>         0.0731
     30 H5          0.1361    3.4864   -1.1439 H         1 <0>         0.1573
     31 H6         -3.3501    1.1926   -0.1459 H         1 <0>         0.1442
     32 H7         -4.1586    5.2559   -2.8464 H         1 <0>         0.2251
     33 H8         -5.3001    1.8331    0.7657 H         1 <0>         0.0725
     34 H9         -6.6694    1.8375   -0.3714 H         1 <0>         0.1136
     35 H10        -5.1770    0.9573   -0.7790 H         1 <0>         0.0674
     36 H11        -1.0489    0.1165   -0.0513 H         1 <0>         0.1854
     37 H12         0.3162    3.3557    0.6400 H         1 <0>         0.2300
     38 H13         0.7113    5.0985    1.0294 H         1 <0>         0.1320
     39 H14         1.4059    7.3949    1.4564 H         1 <0>         0.1501
     40 H15         4.8018    3.8036    1.1339 H         1 <0>         0.1564
     41 H16         6.2197    8.5733    2.0055 H         1 <0>         0.2065
@<TRIPOS>BOND
     1    1    2 1
     2    1   27 1
     3    1   28 1
     4    1   29 1
     5    2    3 1
     6    3    8 ar
     7    3    4 ar
     8    4    5 ar
     9    4   30 1
    10    5    6 ar
    11    5   12 1
    12    6    7 ar
    13    6   31 1
    14    7    8 ar
    15    7   10 1
    16    8    9 1
    17    9   32 1
    18   10   11 1
    19   11   33 1
    20   11   34 1
    21   11   35 1
    22   12   13 2
    23   12   36 1
    24   13   14 1
    25   14   15 am
    26   14   37 1
    27   15   16 2
    28   15   17 1
    29   17   22 ar
    30   17   18 ar
    31   18   19 ar
    32   18   38 1
    33   19   20 ar
    34   19   39 1
    35   20   26 1
    36   20   21 ar
    37   21   22 ar
    38   21   23 1
    39   22   40 1
    40   23   24 1
    41   23   25 1
    42   25   26 2
    43   25   41 1
@<TRIPOS>MOLECULE
ZINC00552242
   42    44     0     0     0
SMALL
USER_CHARGES

@<TRIPOS>ATOM
      1 C1          0.2353    5.5866   -2.1413 C.3       1 <0>        -0.0630
      2 O1         -1.1892    5.5582   -2.0307 O.3       1 <0>        -0.1895
      3 C2         -1.7475    4.4207   -1.5366 C.ar      1 <0>         0.0976
      4 C3         -0.9384    3.3889   -1.0960 C.ar      1 <0>        -0.2722
      5 C4         -1.5127    2.2207   -0.5886 C.ar      1 <0>        -0.0455
      6 C5         -2.9032    2.0963   -0.5332 C.ar      1 <0>        -0.2143
      7 C6         -3.7069    3.1340   -0.9700 C.ar      1 <0>         0.1156
      8 C7         -3.1319    4.2960   -1.4753 C.ar      1 <0>         0.0341
      9 O2         -3.9250    5.3122   -1.9098 O.3       1 <0>        -0.2586
     10 O3         -5.0605    3.0158   -0.9112 O.3       1 <0>        -0.1864
     11 C8         -5.5827    1.8413   -0.2869 C.3       1 <0>        -0.0684
     12 C9         -0.6534    1.1193   -0.1181 C.2       1 <0>        -0.0805
     13 N1          0.5804    1.3536    0.2107 N.2       1 <0>         0.0137
     14 N2          0.9775    2.6504    0.5618 N.am      1 <0>        -0.3261
     15 C10         2.2784    2.9180    0.7909 C.2       1 <0>         0.3464
     16 O4          3.0950    2.0166    0.7849 O.2       1 <0>        -0.2905
     17 C11         2.7121    4.3046    1.0491 C.ar      1 <0>        -0.0662
     18 C12         1.7600    5.3291    1.1451 C.ar      1 <0>        -0.0757
     19 C13         2.1471    6.6128    1.3835 C.ar      1 <0>        -0.0922
     20 C14         3.5048    6.9199    1.5347 C.ar      1 <0>        -0.0432
     21 C15         4.4661    5.8967    1.4391 C.ar      1 <0>        -0.0230
     22 C16         4.0674    4.5924    1.2028 C.ar      1 <0>        -0.0433
     23 N3          5.6914    6.5065    1.6294 N.pl3     1 <0>        -0.1384
     24 H1          6.5848    6.0572    1.6224 H         1 <0>         0.3167
     25 C17         5.4567    7.8299    1.8278 C.cat     1 <0>         0.0896
     26 H2          0.5528    6.5680   -2.4936 H         1 <0>         0.1133
     27 H3          0.6795    5.3896   -1.1657 H         1 <0>         0.0386
     28 H4          0.5600    4.8240   -2.8491 H         1 <0>         0.0832
     29 H5          0.1361    3.4864   -1.1439 H         1 <0>         0.1435
     30 H6         -3.3501    1.1926   -0.1459 H         1 <0>         0.1528
     31 H7         -4.1586    5.2559   -2.8464 H         1 <0>         0.2354
     32 H8         -5.3001    1.8331    0.7657 H         1 <0>         0.0734
     33 H9         -6.6694    1.8375   -0.3714 H         1 <0>         0.1250
     34 H10        -5.1770    0.9573   -0.7790 H         1 <0>         0.0712
     35 H11        -1.0489    0.1165   -0.0513 H         1 <0>         0.1995
     36 H12         0.3162    3.3557    0.6400 H         1 <0>         0.2253
     37 H13         0.7113    5.0985    1.0294 H         1 <0>         0.1719
     38 H14         1.4059    7.3949    1.4564 H         1 <0>         0.1685
     39 H15         4.8018    3.8036    1.1339 H         1 <0>         0.1927
     40 H16         6.2197    8.5733    2.0055 H         1 <0>         0.2506
     41 N4          4.1778    8.0734    1.7727 N.pl3     1 <0>        -0.1024
     42 H17         3.7455    8.9971    1.8912 H         1 <0>         0.3208
@<TRIPOS>BOND
     1    1    2 1
     2    1   26 1
     3    1   27 1
     4    1   28 1
     5    2    3 1
     6    3    8 ar
     7    3    4 ar
     8    4    5 ar
     9    4   29 1
    10    5    6 ar
    11    5   12 1
    12    6    7 ar
    13    6   30 1
    14    7    8 ar
    15    7   10 1
    16    8    9 1
    17    9   31 1
    18   10   11 1
    19   11   32 1
    20   11   33 1
    21   11   34 1
    22   12   13 2
    23   12   35 1
    24   13   14 1
    25   14   15 am
    26   14   36 1
    27   15   16 2
    28   15   17 1
    29   17   22 ar
    30   17   18 ar
    31   18   19 ar
    32   18   37 1
    33   19   20 ar
    34   19   38 1
    35   20   21 ar
    36   20   41 1
    37   21   22 ar
    38   21   23 1
    39   22   39 1
    40   23   24 1
    41   23   25 1
    42   25   40 1
    43   25   41 2
    44   41   42 1
@<TRIPOS>MOLECULE
ZINC00552242
   41    43     0     0     0
SMALL
USER_CHARGES

@<TRIPOS>ATOM
      1 C1          0.2353    5.5866   -2.1413 C.3       1 <0>        -0.0704
      2 O1         -1.1892    5.5582   -2.0307 O.3       1 <0>        -0.1959
      3 C2         -1.7475    4.4207   -1.5366 C.ar      1 <0>         0.1073
      4 C3         -0.9384    3.3889   -1.0960 C.ar      1 <0>        -0.2656
      5 C4         -1.5127    2.2207   -0.5886 C.ar      1 <0>        -0.0284
      6 C5         -2.9032    2.0963   -0.5332 C.ar      1 <0>        -0.2283
      7 C6         -3.7069    3.1340   -0.9700 C.ar      1 <0>         0.1079
      8 C7         -3.1319    4.2960   -1.4753 C.ar      1 <0>         0.0183
      9 O2         -3.9250    5.3122   -1.9098 O.3       1 <0>        -0.2605
     10 O3         -5.0605    3.0158   -0.9112 O.3       1 <0>        -0.1947
     11 C8         -5.5827    1.8413   -0.2869 C.3       1 <0>        -0.0657
     12 C9         -0.6534    1.1193   -0.1181 C.2       1 <0>        -0.1223
     13 N1          0.5804    1.3536    0.2107 N.2       1 <0>         0.0275
     14 N2          0.9775    2.6504    0.5618 N.am      1 <0>        -0.3376
     15 C10         2.2784    2.9180    0.7909 C.2       1 <0>         0.3610
     16 O4          3.0950    2.0166    0.7849 O.2       1 <0>        -0.3179
     17 C11         2.7121    4.3046    1.0491 C.ar      1 <0>        -0.1518
     18 C12         1.7600    5.3291    1.1451 C.ar      1 <0>        -0.1112
     19 C13         2.1471    6.6128    1.3835 C.ar      1 <0>        -0.1252
     20 C14         3.5048    6.9199    1.5347 C.ar      1 <0>        -0.0624
     21 C15         4.4661    5.8967    1.4391 C.ar      1 <0>        -0.0581
     22 C16         4.0674    4.5924    1.2028 C.ar      1 <0>         0.0036
     23 N3          5.6914    6.5065    1.6294 N.2       1 <0>        -0.1632
     24 H1          3.7574    8.9717    1.8880 H         1 <0>         0.2531
     25 C17         5.4567    7.8299    1.8278 C.2       1 <0>        -0.0524
     26 N4          4.1784    8.0720    1.7725 N.pl3     1 <0>        -0.1634
     27 H2          0.5528    6.5680   -2.4936 H         1 <0>         0.1140
     28 H3          0.6795    5.3896   -1.1657 H         1 <0>         0.0694
     29 H4          0.5600    4.8240   -2.8491 H         1 <0>         0.0756
     30 H5          0.1361    3.4864   -1.1439 H         1 <0>         0.1581
     31 H6         -3.3501    1.1926   -0.1459 H         1 <0>         0.1447
     32 H7         -4.1586    5.2559   -2.8464 H         1 <0>         0.2251
     33 H8         -5.3001    1.8331    0.7657 H         1 <0>         0.0724
     34 H9         -6.6694    1.8375   -0.3714 H         1 <0>         0.1136
     35 H10        -5.1770    0.9573   -0.7790 H         1 <0>         0.0680
     36 H11        -1.0489    0.1165   -0.0513 H         1 <0>         0.1856
     37 H12         0.3162    3.3557    0.6400 H         1 <0>         0.2277
     38 H13         0.7113    5.0985    1.0294 H         1 <0>         0.1314
     39 H14         1.4059    7.3949    1.4564 H         1 <0>         0.1319
     40 H15         4.8018    3.8036    1.1339 H         1 <0>         0.1733
     41 H16         6.2197    8.5733    2.0056 H         1 <0>         0.2055
@<TRIPOS>BOND
     1    1    2 1
     2    1   27 1
     3    1   28 1
     4    1   29 1
     5    2    3 1
     6    3    8 ar
     7    3    4 ar
     8    4    5 ar
     9    4   30 1
    10    5    6 ar
    11    5   12 1
    12    6    7 ar
    13    6   31 1
    14    7    8 ar
    15    7   10 1
    16    8    9 1
    17    9   32 1
    18   10   11 1
    19   11   33 1
    20   11   34 1
    21   11   35 1
    22   12   13 2
    23   12   36 1
    24   13   14 1
    25   14   15 am
    26   14   37 1
    27   15   16 2
    28   15   17 1
    29   17   22 ar
    30   17   18 ar
    31   18   19 ar
    32   18   38 1
    33   19   20 ar
    34   19   39 1
    35   20   26 1
    36   20   21 ar
    37   21   22 ar
    38   21   23 1
    39   22   40 1
    40   23   25 2
    41   24   26 1
    42   25   41 1
    43   25   26 1
@<TRIPOS>MOLECULE
ZINC00552243
   41    43     0     0     0
SMALL
USER_CHARGES

@<TRIPOS>ATOM
      1 C1         -8.3358    3.0923    0.0584 C.3       1 <0>        -0.0644
      2 O1         -8.3886    1.6643    0.0509 O.3       1 <0>        -0.1953
      3 C2         -7.2006    1.0025    0.0417 C.ar      1 <0>         0.0997
      4 C3         -6.0138    1.7131    0.0399 C.ar      1 <0>        -0.2327
      5 C4         -4.7937    1.0325    0.0304 C.ar      1 <0>         0.0197
      6 C5         -4.7765   -0.3645    0.0169 C.ar      1 <0>        -0.2097
      7 C6         -5.9665   -1.0695    0.0237 C.ar      1 <0>         0.1001
      8 C7         -7.1801   -0.3888    0.0336 C.ar      1 <0>         0.0218
      9 O2         -8.3488   -1.0849    0.0350 O.3       1 <0>        -0.2605
     10 O3         -5.9505   -2.4294    0.0154 O.3       1 <0>        -0.1976
     11 C8         -4.6697   -3.0630    0.0054 C.3       1 <0>        -0.0678
     12 C9         -3.5272    1.7868    0.0285 C.2       1 <0>        -0.1143
     13 N1         -2.3943    1.1531    0.0197 N.2       1 <0>         0.0121
     14 N2         -1.1906    1.8700    0.0179 N.am      1 <0>        -0.3272
     15 C10        -0.0144    1.2121    0.0087 C.2       1 <0>         0.3698
     16 O4          0.0021   -0.0041    0.0020 O.2       1 <0>        -0.3292
     17 C11         1.2533    1.9672    0.0007 C.ar      1 <0>        -0.1227
     18 C12         1.2328    3.3690    0.0084 C.ar      1 <0>        -0.1281
     19 C13         2.3957    4.0776    0.0020 C.ar      1 <0>        -0.0750
     20 C14         3.6254    3.4083   -0.0129 C.ar      1 <0>        -0.0256
     21 C15         3.6536    2.0014   -0.0212 C.ar      1 <0>        -0.0663
     22 C16         2.4691    1.2854   -0.0088 C.ar      1 <0>        -0.0508
     23 N3          4.9893    1.6475   -0.0356 N.pl3     1 <0>        -0.2187
     24 H1          5.3562    0.7173   -0.0443 H         1 <0>         0.2589
     25 C17         5.7114    2.7983   -0.0358 C.2       1 <0>        -0.0148
     26 N4          4.9143    3.8280   -0.0225 N.2       1 <0>        -0.1785
     27 H2         -7.8131    3.4412   -0.8322 H         1 <0>         0.0656
     28 H3         -9.3493    3.4934    0.0654 H         1 <0>         0.1114
     29 H4         -7.8046    3.4315    0.9477 H         1 <0>         0.0694
     30 H5         -6.0304    2.7930    0.0454 H         1 <0>         0.1381
     31 H6         -3.8349   -0.8933    0.0047 H         1 <0>         0.1676
     32 H7         -8.6907   -1.2811   -0.8480 H         1 <0>         0.2225
     33 H8         -4.7998   -4.1452   -0.0005 H         1 <0>         0.1098
     34 H9         -4.1204   -2.7582   -0.8854 H         1 <0>         0.0732
     35 H10        -4.1119   -2.7690    0.8946 H         1 <0>         0.0770
     36 H11        -3.5419    2.8667    0.0344 H         1 <0>         0.1164
     37 H12        -1.2038    2.8399    0.0232 H         1 <0>         0.2115
     38 H13         0.2874    3.8909    0.0198 H         1 <0>         0.1254
     39 H14         2.3694    5.1573    0.0088 H         1 <0>         0.1469
     40 H15         2.4867    0.2056   -0.0102 H         1 <0>         0.1560
     41 H16         6.7901    2.8514   -0.0452 H         1 <0>         0.2063
@<TRIPOS>BOND
     1    1    2 1
     2    1   27 1
     3    1   28 1
     4    1   29 1
     5    2    3 1
     6    3    8 ar
     7    3    4 ar
     8    4    5 ar
     9    4   30 1
    10    5    6 ar
    11    5   12 1
    12    6    7 ar
    13    6   31 1
    14    7    8 ar
    15    7   10 1
    16    8    9 1
    17    9   32 1
    18   10   11 1
    19   11   33 1
    20   11   34 1
    21   11   35 1
    22   12   13 2
    23   12   36 1
    24   13   14 1
    25   14   15 am
    26   14   37 1
    27   15   16 2
    28   15   17 1
    29   17   22 ar
    30   17   18 ar
    31   18   19 ar
    32   18   38 1
    33   19   20 ar
    34   19   39 1
    35   20   26 1
    36   20   21 ar
    37   21   22 ar
    38   21   23 1
    39   22   40 1
    40   23   24 1
    41   23   25 1
    42   25   26 2
    43   25   41 1
@<TRIPOS>MOLECULE
ZINC00552243
   42    44     0     0     0
SMALL
USER_CHARGES

@<TRIPOS>ATOM
      1 C1         -8.3358    3.0923    0.0584 C.3       1 <0>        -0.0653
      2 O1         -8.3886    1.6643    0.0509 O.3       1 <0>        -0.1882
      3 C2         -7.2006    1.0025    0.0417 C.ar      1 <0>         0.1022
      4 C3         -6.0138    1.7131    0.0399 C.ar      1 <0>        -0.2243
      5 C4         -4.7937    1.0325    0.0304 C.ar      1 <0>        -0.0053
      6 C5         -4.7765   -0.3645    0.0169 C.ar      1 <0>        -0.2040
      7 C6         -5.9665   -1.0695    0.0237 C.ar      1 <0>         0.0998
      8 C7         -7.1801   -0.3888    0.0336 C.ar      1 <0>         0.0401
      9 O2         -8.3488   -1.0849    0.0350 O.3       1 <0>        -0.2562
     10 O3         -5.9505   -2.4294    0.0154 O.3       1 <0>        -0.1901
     11 C8         -4.6697   -3.0630    0.0054 C.3       1 <0>        -0.0673
     12 C9         -3.5272    1.7868    0.0285 C.2       1 <0>        -0.0697
     13 N1         -2.3943    1.1531    0.0197 N.2       1 <0>        -0.0064
     14 N2         -1.1906    1.8700    0.0179 N.am      1 <0>        -0.3192
     15 C10        -0.0144    1.2121    0.0087 C.2       1 <0>         0.3548
     16 O4          0.0021   -0.0041    0.0020 O.2       1 <0>        -0.2949
     17 C11         1.2533    1.9672    0.0007 C.ar      1 <0>        -0.0626
     18 C12         1.2328    3.3690    0.0084 C.ar      1 <0>        -0.0709
     19 C13         2.3957    4.0776    0.0020 C.ar      1 <0>        -0.0922
     20 C14         3.6254    3.4083   -0.0129 C.ar      1 <0>        -0.0424
     21 C15         3.6536    2.0014   -0.0212 C.ar      1 <0>        -0.0219
     22 C16         2.4691    1.2854   -0.0088 C.ar      1 <0>        -0.0423
     23 N3          4.9893    1.6475   -0.0356 N.pl3     1 <0>        -0.1381
     24 H1          5.3562    0.7173   -0.0443 H         1 <0>         0.3168
     25 C17         5.7114    2.7983   -0.0358 C.cat     1 <0>         0.0899
     26 H2         -7.8131    3.4412   -0.8322 H         1 <0>         0.0646
     27 H3         -9.3493    3.4934    0.0654 H         1 <0>         0.1197
     28 H4         -7.8046    3.4315    0.9477 H         1 <0>         0.0685
     29 H5         -6.0304    2.7930    0.0454 H         1 <0>         0.1389
     30 H6         -3.8349   -0.8933    0.0047 H         1 <0>         0.1633
     31 H7         -8.6907   -1.2811   -0.8480 H         1 <0>         0.2305
     32 H8         -4.7998   -4.1452   -0.0005 H         1 <0>         0.1170
     33 H9         -4.1204   -2.7582   -0.8854 H         1 <0>         0.0698
     34 H10        -4.1119   -2.7690    0.8946 H         1 <0>         0.0737
     35 H11        -3.5419    2.8667    0.0344 H         1 <0>         0.1175
     36 H12        -1.2038    2.8399    0.0232 H         1 <0>         0.2029
     37 H13         0.2874    3.8909    0.0198 H         1 <0>         0.1649
     38 H14         2.3694    5.1573    0.0088 H         1 <0>         0.1655
     39 H15         2.4867    0.2056   -0.0102 H         1 <0>         0.1926
     40 H16         6.7901    2.8514   -0.0452 H         1 <0>         0.2507
     41 N4          4.9148    3.8294   -0.0225 N.pl3     1 <0>        -0.1026
     42 H17         5.2169    4.8107   -0.0197 H         1 <0>         0.3203
@<TRIPOS>BOND
     1    1    2 1
     2    1   26 1
     3    1   27 1
     4    1   28 1
     5    2    3 1
     6    3    8 ar
     7    3    4 ar
     8    4    5 ar
     9    4   29 1
    10    5    6 ar
    11    5   12 1
    12    6    7 ar
    13    6   30 1
    14    7    8 ar
    15    7   10 1
    16    8    9 1
    17    9   31 1
    18   10   11 1
    19   11   32 1
    20   11   33 1
    21   11   34 1
    22   12   13 2
    23   12   35 1
    24   13   14 1
    25   14   15 am
    26   14   36 1
    27   15   16 2
    28   15   17 1
    29   17   22 ar
    30   17   18 ar
    31   18   19 ar
    32   18   37 1
    33   19   20 ar
    34   19   38 1
    35   20   21 ar
    36   20   41 1
    37   21   22 ar
    38   21   23 1
    39   22   39 1
    40   23   24 1
    41   23   25 1
    42   25   40 1
    43   25   41 2
    44   41   42 1
@<TRIPOS>MOLECULE
ZINC00552243
   41    43     0     0     0
SMALL
USER_CHARGES

@<TRIPOS>ATOM
      1 C1         -8.3358    3.0923    0.0584 C.3       1 <0>        -0.0642
      2 O1         -8.3886    1.6643    0.0509 O.3       1 <0>        -0.1954
      3 C2         -7.2006    1.0025    0.0417 C.ar      1 <0>         0.0994
      4 C3         -6.0138    1.7131    0.0399 C.ar      1 <0>        -0.2336
      5 C4         -4.7937    1.0325    0.0304 C.ar      1 <0>         0.0203
      6 C5         -4.7765   -0.3645    0.0169 C.ar      1 <0>        -0.2095
      7 C6         -5.9665   -1.0695    0.0237 C.ar      1 <0>         0.1007
      8 C7         -7.1801   -0.3888    0.0336 C.ar      1 <0>         0.0213
      9 O2         -8.3488   -1.0849    0.0350 O.3       1 <0>        -0.2606
     10 O3         -5.9505   -2.4294    0.0154 O.3       1 <0>        -0.1978
     11 C8         -4.6697   -3.0630    0.0054 C.3       1 <0>        -0.0680
     12 C9         -3.5272    1.7868    0.0285 C.2       1 <0>        -0.1166
     13 N1         -2.3943    1.1531    0.0197 N.2       1 <0>         0.0146
     14 N2         -1.1906    1.8700    0.0179 N.am      1 <0>        -0.3293
     15 C10        -0.0144    1.2121    0.0087 C.2       1 <0>         0.3698
     16 O4          0.0021   -0.0041    0.0020 O.2       1 <0>        -0.3230
     17 C11         1.2533    1.9672    0.0007 C.ar      1 <0>        -0.1481
     18 C12         1.2328    3.3690    0.0084 C.ar      1 <0>        -0.1032
     19 C13         2.3957    4.0776    0.0020 C.ar      1 <0>        -0.1259
     20 C14         3.6254    3.4083   -0.0129 C.ar      1 <0>        -0.0611
     21 C15         3.6536    2.0014   -0.0212 C.ar      1 <0>        -0.0577
     22 C16         2.4691    1.2854   -0.0088 C.ar      1 <0>         0.0045
     23 N3          4.9893    1.6475   -0.0356 N.2       1 <0>        -0.1630
     24 H1          5.2085    4.7837   -0.0198 H         1 <0>         0.2523
     25 C17         5.7114    2.7983   -0.0358 C.2       1 <0>        -0.0527
     26 N4          4.9143    3.8280   -0.0225 N.pl3     1 <0>        -0.1638
     27 H2         -7.8131    3.4412   -0.8322 H         1 <0>         0.0653
     28 H3         -9.3493    3.4934    0.0654 H         1 <0>         0.1111
     29 H4         -7.8046    3.4315    0.9477 H         1 <0>         0.0691
     30 H5         -6.0304    2.7930    0.0454 H         1 <0>         0.1373
     31 H6         -3.8349   -0.8933    0.0047 H         1 <0>         0.1683
     32 H7         -8.6907   -1.2811   -0.8480 H         1 <0>         0.2224
     33 H8         -4.7998   -4.1452   -0.0005 H         1 <0>         0.1102
     34 H9         -4.1204   -2.7582   -0.8854 H         1 <0>         0.0737
     35 H10        -4.1119   -2.7690    0.8946 H         1 <0>         0.0775
     36 H11        -3.5419    2.8667    0.0344 H         1 <0>         0.1151
     37 H12        -1.2038    2.8399    0.0232 H         1 <0>         0.2089
     38 H13         0.2874    3.8909    0.0198 H         1 <0>         0.1249
     39 H14         2.3694    5.1573    0.0088 H         1 <0>         0.1286
     40 H15         2.4867    0.2056   -0.0102 H         1 <0>         0.1730
     41 H16         6.7901    2.8514   -0.0456 H         1 <0>         0.2054
@<TRIPOS>BOND
     1    1    2 1
     2    1   27 1
     3    1   28 1
     4    1   29 1
     5    2    3 1
     6    3    8 ar
     7    3    4 ar
     8    4    5 ar
     9    4   30 1
    10    5    6 ar
    11    5   12 1
    12    6    7 ar
    13    6   31 1
    14    7    8 ar
    15    7   10 1
    16    8    9 1
    17    9   32 1
    18   10   11 1
    19   11   33 1
    20   11   34 1
    21   11   35 1
    22   12   13 2
    23   12   36 1
    24   13   14 1
    25   14   15 am
    26   14   37 1
    27   15   16 2
    28   15   17 1
    29   17   22 ar
    30   17   18 ar
    31   18   19 ar
    32   18   38 1
    33   19   20 ar
    34   19   39 1
    35   20   26 1
    36   20   21 ar
    37   21   22 ar
    38   21   23 1
    39   22   40 1
    40   23   25 2
    41   24   26 1
    42   25   41 1
    43   25   26 1
@<TRIPOS>MOLECULE
ZINC00558000
   42    43     0     0     0
SMALL
USER_CHARGES

@<TRIPOS>ATOM
      1 C1         -5.4102    5.5700   10.3742 C.3       1 <0>        -0.1800
      2 C2         -4.7444    5.2233    9.0675 C.ar      1 <0>        -0.0403
      3 C3         -4.9757    3.9908    8.4823 C.ar      1 <0>        -0.1453
      4 C4         -4.3691    3.6668    7.2867 C.ar      1 <0>        -0.0938
      5 C5         -3.5201    4.5856    6.6669 C.ar      1 <0>        -0.1474
      6 C6         -3.2865    5.8247    7.2654 C.ar      1 <0>         0.0014
      7 C7         -3.9042    6.1382    8.4587 C.ar      1 <0>        -0.1421
      8 C8         -2.3667    6.8202    6.6067 C.3       1 <0>        -0.1847
      9 C9         -2.8666    4.2453    5.3854 C.2       1 <0>         0.3529
     10 O1         -2.2214    5.0861    4.7900 O.2       1 <0>        -0.3505
     11 N1         -2.9861    3.0028    4.8771 N.am      1 <0>        -0.3290
     12 C10        -2.2807    2.6487    3.7227 C.ar      1 <0>         0.1253
     13 C11        -1.0216    3.1844    3.4847 C.ar      1 <0>        -0.1589
     14 C12        -0.3274    2.8323    2.3438 C.ar      1 <0>        -0.0134
     15 C13        -0.8845    1.9472    1.4392 C.ar      1 <0>        -0.7819
     16 C14        -2.1402    1.4161    1.6705 C.ar      1 <0>         0.0138
     17 C15        -2.8376    1.7603    2.8118 C.ar      1 <0>        -0.1920
     18 S1          0.0045    1.5006   -0.0151 S.o2      1 <0>         2.7487
     19 O2          0.9196    2.5570   -0.2721 O.2       1 <0>        -0.9114
     20 O3         -0.9616    1.0807   -0.9688 O.2       1 <0>        -0.8836
     21 N2          0.9133    0.1671    0.3567 N.am      1 <0>        -0.8297
     22 C16         0.3074   -0.9946    0.6725 C.2       1 <0>         0.3252
     23 O4         -0.9034   -1.0633    0.6844 O.2       1 <0>        -0.3319
     24 C17         1.1344   -2.2081    1.0108 C.3       1 <0>        -0.2385
     25 H1         -4.7711    5.2605   11.2011 H         1 <0>         0.0912
     26 H2         -5.5734    6.6466   10.4244 H         1 <0>         0.0866
     27 H3         -6.3678    5.0539   10.4423 H         1 <0>         0.0851
     28 H4         -5.6324    3.2808    8.9630 H         1 <0>         0.1347
     29 H5         -4.5502    2.7045    6.8312 H         1 <0>         0.1226
     30 H6         -3.7279    7.0984    8.9206 H         1 <0>         0.1399
     31 H7         -2.9170    7.3766    5.8479 H         1 <0>         0.1028
     32 H8         -1.9824    7.5114    7.3567 H         1 <0>         0.0713
     33 H9         -1.5355    6.2926    6.1389 H         1 <0>         0.1215
     34 H10        -3.5614    2.3541    5.3121 H         1 <0>         0.2377
     35 H11        -0.5856    3.8752    4.1912 H         1 <0>         0.1634
     36 H12         0.6518    3.2485    2.1582 H         1 <0>         0.1494
     37 H13        -2.5743    0.7285    0.9598 H         1 <0>         0.1709
     38 H14        -3.8165    1.3420    2.9940 H         1 <0>         0.1380
     39 H15         1.8817    0.2221    0.3471 H         1 <0>         0.2528
     40 H16         2.1928   -1.9556    0.9475 H         1 <0>         0.0838
     41 H17         0.8993   -2.5374    2.0230 H         1 <0>         0.1154
     42 H18         0.9091   -3.0091    0.3067 H         1 <0>         0.1200
@<TRIPOS>BOND
     1    1    2 1
     2    1   25 1
     3    1   26 1
     4    1   27 1
     5    2    7 ar
     6    2    3 ar
     7    3    4 ar
     8    3   28 1
     9    4    5 ar
    10    4   29 1
    11    5    6 ar
    12    5    9 1
    13    6    7 ar
    14    6    8 1
    15    7   30 1
    16    8   31 1
    17    8   32 1
    18    8   33 1
    19    9   10 2
    20    9   11 am
    21   11   12 1
    22   11   34 1
    23   12   17 ar
    24   12   13 ar
    25   13   14 ar
    26   13   35 1
    27   14   15 ar
    28   14   36 1
    29   15   16 ar
    30   15   18 1
    31   16   17 ar
    32   16   37 1
    33   17   38 1
    34   18   19 2
    35   18   20 2
    36   18   21 1
    37   21   22 am
    38   21   39 1
    39   22   23 2
    40   22   24 1
    41   24   40 1
    42   24   41 1
    43   24   42 1
@<TRIPOS>MOLECULE
ZINC00559951
   38    40     0     0     0
SMALL
USER_CHARGES

@<TRIPOS>ATOM
      1 C1          0.3062   -4.8053    3.8197 C.3       1 <0>        -0.0626
      2 O1          0.2271   -4.1062    2.5759 O.3       1 <0>        -0.2021
      3 C2          0.1697   -4.8590    1.4488 C.ar      1 <0>         0.1628
      4 C3          0.1835   -6.2417    1.5348 C.ar      1 <0>        -0.2637
      5 C4          0.1309   -7.0111    0.3874 C.ar      1 <0>        -0.0329
      6 C5          0.0582   -6.4117   -0.8563 C.ar      1 <0>        -0.2640
      7 C6          0.0377   -5.0307   -0.9651 C.ar      1 <0>         0.1626
      8 C7          0.0906   -4.2404    0.1925 C.ar      1 <0>        -0.1932
      9 C8          0.0695   -2.7720    0.0892 C.2       1 <0>         0.3761
     10 O2         -0.9911   -2.1766    0.1023 O.2       1 <0>        -0.3384
     11 N1          1.2253   -2.0874   -0.0199 N.am      1 <0>        -0.3164
     12 C9          1.2136   -0.6873   -0.0069 C.ar      1 <0>         0.0760
     13 C10         2.1433    0.0213   -0.7598 C.ar      1 <0>        -0.1584
     14 C11         2.1367    1.4016   -0.7515 C.ar      1 <0>        -0.1087
     15 C12         1.2004    2.0847    0.0101 C.ar      1 <0>        -0.0206
     16 C13         0.2659    1.3759    0.7679 C.ar      1 <0>         0.0193
     17 C14         0.2749   -0.0101    0.7572 C.ar      1 <0>        -0.1268
     18 N2         -0.5279    2.3204    1.4145 N.am      1 <0>        -0.2935
     19 H1         -1.2660    2.1269    2.0134 H         1 <0>         0.2696
     20 C15        -0.0967    3.5475    1.0669 C.2       1 <0>         0.3900
     21 O3         -0.5755    4.5954    1.4587 O.2       1 <0>        -0.3886
     22 N3          0.9450    3.4395    0.2209 N.am      1 <0>        -0.2977
     23 H2          1.4341    4.1778   -0.1747 H         1 <0>         0.2657
     24 O4         -0.0337   -4.4450   -2.1866 O.3       1 <0>        -0.1993
     25 C16        -0.0846   -5.3133   -3.3204 C.3       1 <0>        -0.0627
     26 H3         -0.5720   -5.4403    3.9361 H         1 <0>         0.0742
     27 H4          1.2049   -5.4220    3.8333 H         1 <0>         0.0692
     28 H5          0.3462   -4.0869    4.6385 H         1 <0>         0.1141
     29 H6          0.2402   -6.7202    2.5013 H         1 <0>         0.1408
     30 H7          0.1471   -8.0883    0.4632 H         1 <0>         0.1343
     31 H8          0.0175   -7.0222   -1.7462 H         1 <0>         0.1408
     32 H9          2.0652   -2.5647   -0.1074 H         1 <0>         0.2363
     33 H10         2.8728   -0.5099   -1.3531 H         1 <0>         0.1360
     34 H11         2.8628    1.9490   -1.3341 H         1 <0>         0.1351
     35 H12        -0.4466   -0.5610    1.3423 H         1 <0>         0.1696
     36 H13         0.8122   -5.9324   -3.3445 H         1 <0>         0.0680
     37 H14        -0.9651   -5.9519   -3.2499 H         1 <0>         0.0744
     38 H15        -0.1396   -4.7180   -4.2318 H         1 <0>         0.1148
@<TRIPOS>BOND
     1    1    2 1
     2    1   26 1
     3    1   27 1
     4    1   28 1
     5    2    3 1
     6    3    8 ar
     7    3    4 ar
     8    4    5 ar
     9    4   29 1
    10    5    6 ar
    11    5   30 1
    12    6    7 ar
    13    6   31 1
    14    7    8 ar
    15    7   24 1
    16    8    9 1
    17    9   10 2
    18    9   11 am
    19   11   12 1
    20   11   32 1
    21   12   17 ar
    22   12   13 ar
    23   13   14 ar
    24   13   33 1
    25   14   15 ar
    26   14   34 1
    27   15   22 1
    28   15   16 ar
    29   16   17 ar
    30   16   18 1
    31   17   35 1
    32   18   19 1
    33   18   20 am
    34   20   21 2
    35   20   22 am
    36   22   23 1
    37   24   25 1
    38   25   36 1
    39   25   37 1
    40   25   38 1
@<TRIPOS>MOLECULE
ZINC00561559
   45    47     0     0     0
SMALL
USER_CHARGES

@<TRIPOS>ATOM
      1 C1          4.8177   -2.6521   -0.1475 C.ar      1 <0>        -0.0114
      2 C2          5.9970   -1.9646   -0.1554 C.ar      1 <0>        -0.1924
      3 C3          7.2046   -2.6490   -0.2779 C.ar      1 <0>         0.0551
      4 C4          7.2158   -4.0382   -0.3879 C.ar      1 <0>        -0.1680
      5 C5          6.0424   -4.7356   -0.3757 C.ar      1 <0>        -0.0651
      6 C6          4.8237   -4.0514   -0.2521 C.ar      1 <0>        -0.1266
      7 C7          3.5629   -4.7940   -0.2384 C.2       1 <0>         0.0577
      8 C8          2.5696   -4.4496    0.6537 C.2       1 <0>        -0.1534
      9 C9          1.2502   -4.9837    0.4974 C.1       1 <0>        -0.0969
     10 N1          0.2035   -5.4074    0.3735 N.1       1 <0>        -0.0382
     11 C10         2.8653   -3.5339    1.7658 C.2       1 <0>         0.3574
     12 O1          4.0120   -3.1888    1.9813 O.2       1 <0>        -0.3508
     13 N2          1.8660   -3.0768    2.5462 N.am      1 <0>        -0.3176
     14 C11         2.1323   -2.1268    3.5399 C.ar      1 <0>         0.0478
     15 C12         1.1954   -1.1439    3.8303 C.ar      1 <0>        -0.1454
     16 C13         1.4585   -0.2077    4.8107 C.ar      1 <0>        -0.1387
     17 C14         2.6585   -0.2490    5.5054 C.ar      1 <0>         0.0556
     18 C15         3.5950   -1.2306    5.2160 C.ar      1 <0>        -0.1392
     19 C16         3.3333   -2.1675    4.2359 C.ar      1 <0>        -0.1141
     20 O2          2.9169    0.6732    6.4707 O.3       1 <0>        -0.2909
     21 N3          8.4015   -1.9441   -0.2909 N.pl3     1 <0>        -0.1972
     22 C17         9.3039   -2.4186    0.7683 C.3       1 <0>        -0.1070
     23 C18        10.6298   -1.6582    0.6802 C.3       1 <0>        -0.0155
     24 O3         10.3754   -0.2540    0.7745 O.3       1 <0>        -0.2776
     25 C19         9.5006    0.2422   -0.2422 C.3       1 <0>        -0.0146
     26 C20         8.1632   -0.4990   -0.1635 C.3       1 <0>        -0.1184
     27 H1          3.8821   -2.1204   -0.0571 H         1 <0>         0.1348
     28 H2          5.9938   -0.8879   -0.0705 H         1 <0>         0.1420
     29 H3          8.1544   -4.5639   -0.4826 H         1 <0>         0.1380
     30 H4          6.0521   -5.8122   -0.4614 H         1 <0>         0.1307
     31 H5          3.4103   -5.6118   -0.9272 H         1 <0>         0.1464
     32 H6          0.9624   -3.4059    2.4195 H         1 <0>         0.2389
     33 H7          0.2609   -1.1118    3.2897 H         1 <0>         0.1343
     34 H8          0.7317    0.5595    5.0335 H         1 <0>         0.1420
     35 H9          4.5291   -1.2619    5.7571 H         1 <0>         0.1442
     36 H10         4.0624   -2.9318    4.0109 H         1 <0>         0.1682
     37 H11         2.6236    0.4107    7.3540 H         1 <0>         0.2251
     38 H12         8.8470   -2.2419    1.7420 H         1 <0>         0.0840
     39 H13         9.4869   -3.4854    0.6396 H         1 <0>         0.1040
     40 H14        11.1126   -1.8775   -0.2721 H         1 <0>         0.0790
     41 H15        11.2815   -1.9657    1.4980 H         1 <0>         0.1119
     42 H16         9.9505    0.0782   -1.2214 H         1 <0>         0.0795
     43 H17         9.3348    1.3090   -0.0919 H         1 <0>         0.1121
     44 H18         7.5136   -0.1645   -0.9723 H         1 <0>         0.1064
     45 H19         7.6874   -0.2917    0.7950 H         1 <0>         0.0837
@<TRIPOS>BOND
     1    1    6 ar
     2    1    2 ar
     3    1   27 1
     4    2    3 ar
     5    2   28 1
     6    3    4 ar
     7    3   21 1
     8    4    5 ar
     9    4   29 1
    10    5    6 ar
    11    5   30 1
    12    6    7 1
    13    7    8 2
    14    7   31 1
    15    8    9 1
    16    8   11 1
    17    9   10 3
    18   11   12 2
    19   11   13 am
    20   13   14 1
    21   13   32 1
    22   14   19 ar
    23   14   15 ar
    24   15   16 ar
    25   15   33 1
    26   16   17 ar
    27   16   34 1
    28   17   18 ar
    29   17   20 1
    30   18   19 ar
    31   18   35 1
    32   19   36 1
    33   20   37 1
    34   21   26 1
    35   21   22 1
    36   22   23 1
    37   22   38 1
    38   22   39 1
    39   23   24 1
    40   23   40 1
    41   23   41 1
    42   24   25 1
    43   25   26 1
    44   25   42 1
    45   25   43 1
    46   26   44 1
    47   26   45 1
@<TRIPOS>MOLECULE
ZINC00562999
   41    42     0     0     0
SMALL
USER_CHARGES

@<TRIPOS>ATOM
      1 C1         -2.0792    1.2954    6.3956 C.3       1 <0>        -0.1502
      2 C2         -2.9779    2.4546    6.0499 C.2       1 <0>        -0.0691
      3 C3         -3.8131    3.0784    6.9010 C.2       1 <0>        -0.1776
      4 C4         -4.4795    4.1353    6.1344 C.2       1 <0>        -0.1409
      5 C5         -3.9786    4.0623    4.8660 C.2       1 <0>        -0.0050
      6 N1         -3.0777    3.0435    4.8218 N.pl3     1 <0>        -0.0920
      7 C6         -2.3543    2.6590    3.6847 C.ar      1 <0>         0.0995
      8 C7         -2.5599    1.4075    3.1198 C.ar      1 <0>        -0.1500
      9 C8         -1.8457    1.0316    1.9989 C.ar      1 <0>        -0.0179
     10 C9         -0.9267    1.9002    1.4394 C.ar      1 <0>        -0.7643
     11 C10        -0.7160    3.1453    2.0029 C.ar      1 <0>        -0.0231
     12 C11        -1.4309    3.5290    3.1206 C.ar      1 <0>        -0.1473
     13 S1         -0.0172    1.4168    0.0098 S.o2      1 <0>         2.7605
     14 O1          0.0021   -0.0041    0.0020 O.2       1 <0>        -0.9146
     15 O2          1.1718    2.1948    0.0027 O.2       1 <0>        -0.9092
     16 N2         -0.8975    1.8855   -1.3122 N.pl3     1 <0>        -0.9226
     17 C12        -4.3601    4.9545    3.7130 C.3       1 <0>        -0.1599
     18 C13        -5.4849    5.0904    6.6343 C.2       1 <0>        -0.0582
     19 N3         -5.9912    5.9781    5.8340 N.2       1 <0>        -0.0276
     20 N4         -6.9468    6.8858    6.3092 N.am      1 <0>        -0.3343
     21 C14        -7.4724    7.8076    5.4782 C.2       1 <0>         0.3165
     22 O3         -7.1180    7.8514    4.3187 O.2       1 <0>        -0.3334
     23 C15        -8.5003    8.7840    5.9893 C.3       1 <0>        -0.2370
     24 H1         -1.1136    1.6722    6.7329 H         1 <0>         0.0911
     25 H2         -2.5365    0.7054    7.1899 H         1 <0>         0.0940
     26 H3         -1.9374    0.6700    5.5142 H         1 <0>         0.0835
     27 H4         -3.9633    2.8455    7.9448 H         1 <0>         0.1541
     28 H5         -3.2772    0.7285    3.5565 H         1 <0>         0.1520
     29 H6         -2.0055    0.0583    1.5588 H         1 <0>         0.1571
     30 H7          0.0057    3.8198    1.5663 H         1 <0>         0.1569
     31 H8         -1.2685    4.5030    3.5581 H         1 <0>         0.1543
     32 H9         -1.2009    1.2230   -1.9525 H         1 <0>         0.2446
     33 H10        -1.1097    2.8224   -1.4463 H         1 <0>         0.2355
     34 H11        -5.2031    4.5167    3.1783 H         1 <0>         0.0987
     35 H12        -4.6408    5.9374    4.0915 H         1 <0>         0.1387
     36 H13        -3.5124    5.0548    3.0351 H         1 <0>         0.0720
     37 H14        -5.8004    5.0514    7.6665 H         1 <0>         0.1150
     38 H15        -7.2301    6.8508    7.2362 H         1 <0>         0.2043
     39 H16        -7.9988    9.6753    6.3663 H         1 <0>         0.1058
     40 H17        -9.1730    9.0613    5.1778 H         1 <0>         0.1187
     41 H18        -9.0724    8.3214    6.7936 H         1 <0>         0.0815
@<TRIPOS>BOND
     1    1    2 1
     2    1   24 1
     3    1   25 1
     4    1   26 1
     5    2    6 1
     6    2    3 2
     7    3    4 1
     8    3   27 1
     9    4    5 2
    10    4   18 1
    11    5    6 1
    12    5   17 1
    13    6    7 1
    14    7   12 ar
    15    7    8 ar
    16    8    9 ar
    17    8   28 1
    18    9   10 ar
    19    9   29 1
    20   10   11 ar
    21   10   13 1
    22   11   12 ar
    23   11   30 1
    24   12   31 1
    25   13   14 2
    26   13   15 2
    27   13   16 1
    28   16   32 1
    29   16   33 1
    30   17   34 1
    31   17   35 1
    32   17   36 1
    33   18   19 2
    34   18   37 1
    35   19   20 1
    36   20   21 am
    37   20   38 1
    38   21   22 2
    39   21   23 1
    40   23   39 1
    41   23   40 1
    42   23   41 1
@<TRIPOS>MOLECULE
ZINC00570028
   41    42     0     0     0
SMALL
USER_CHARGES

@<TRIPOS>ATOM
      1 C1          2.0797    1.2185   -3.1675 C.3       1 <0>        -0.1959
      2 C2          1.1657    2.0331   -2.2499 C.3       1 <0>        -0.1888
      3 C3         -0.1186    1.2784   -2.0217 C.2       1 <0>         0.3023
      4 O1         -0.2863    0.1955   -2.5418 O.2       1 <0>        -0.3528
      5 N1         -1.0831    1.8091   -1.2442 N.am      1 <0>        -0.3278
      6 C4         -2.3116    1.1534   -1.1078 C.ar      1 <0>         0.0772
      7 C5         -2.3596   -0.2350   -1.0803 C.ar      1 <0>        -0.1366
      8 C6         -3.5720   -0.8832   -0.9452 C.ar      1 <0>        -0.0971
      9 C7         -4.7405   -0.1538   -0.8370 C.ar      1 <0>        -0.1739
     10 C8         -4.6994    1.2346   -0.8638 C.ar      1 <0>         0.0699
     11 C9         -3.4824    1.8888   -0.9941 C.ar      1 <0>        -0.1596
     12 N2         -5.8825    1.9722   -0.7547 N.am      1 <0>        -0.3204
     13 C10        -6.0258    3.1218   -1.4434 C.2       1 <0>         0.3512
     14 O2         -5.0987    3.5581   -2.0975 O.2       1 <0>        -0.3454
     15 C11        -7.3103    3.8522   -1.4033 C.ar      1 <0>        -0.1459
     16 C12        -8.4151    3.2927   -0.7587 C.ar      1 <0>        -0.0592
     17 C13        -9.6108    3.9795   -0.7250 C.ar      1 <0>        -0.1539
     18 C14        -9.7168    5.2204   -1.3282 C.ar      1 <0>        -0.0404
     19 C15        -8.6259    5.7805   -1.9686 C.ar      1 <0>        -0.1289
     20 C16        -7.4224    5.1067   -2.0047 C.ar      1 <0>         0.0570
     21 C17        -6.2331    5.7213   -2.6968 C.3       1 <0>        -0.2211
     22 N3         -8.7483    7.1083   -2.6111 N.pl3     1 <0>         0.5514
     23 O3         -9.7763    7.7505   -2.4911 O.2       1 <0>        -0.3550
     24 O4         -7.8210    7.5588   -3.2597 O.3       1 <0>        -0.3486
     25 H1          1.5813    1.0525   -4.1225 H         1 <0>         0.0929
     26 H2          3.0086    1.7644   -3.3325 H         1 <0>         0.0732
     27 H3          2.3005    0.2584   -2.7011 H         1 <0>         0.0893
     28 H4          0.9449    2.9932   -2.7163 H         1 <0>         0.1033
     29 H5          1.6641    2.1991   -1.2949 H         1 <0>         0.0980
     30 H6         -0.9256    2.6457   -0.7792 H         1 <0>         0.2331
     31 H7         -1.4481   -0.8080   -1.1650 H         1 <0>         0.1658
     32 H8         -3.6066   -1.9624   -0.9244 H         1 <0>         0.1371
     33 H9         -5.6868   -0.6635   -0.7318 H         1 <0>         0.1278
     34 H10        -3.4472    2.9681   -1.0111 H         1 <0>         0.1613
     35 H11        -6.6000    1.6564   -0.1834 H         1 <0>         0.2322
     36 H12        -8.3339    2.3241   -0.2879 H         1 <0>         0.1363
     37 H13       -10.4664    3.5476   -0.2271 H         1 <0>         0.1506
     38 H14       -10.6552    5.7542   -1.2987 H         1 <0>         0.1677
     39 H15        -6.1896    5.3679   -3.7270 H         1 <0>         0.1188
     40 H16        -6.3293    6.8070   -2.6889 H         1 <0>         0.1291
     41 H17        -5.3204    5.4336   -2.1751 H         1 <0>         0.1255
@<TRIPOS>BOND
     1    1    2 1
     2    1   25 1
     3    1   26 1
     4    1   27 1
     5    2    3 1
     6    2   28 1
     7    2   29 1
     8    3    4 2
     9    3    5 am
    10    5    6 1
    11    5   30 1
    12    6   11 ar
    13    6    7 ar
    14    7    8 ar
    15    7   31 1
    16    8    9 ar
    17    8   32 1
    18    9   10 ar
    19    9   33 1
    20   10   11 ar
    21   10   12 1
    22   11   34 1
    23   12   13 am
    24   12   35 1
    25   13   14 2
    26   13   15 1
    27   15   20 ar
    28   15   16 ar
    29   16   17 ar
    30   16   36 1
    31   17   18 ar
    32   17   37 1
    33   18   19 ar
    34   18   38 1
    35   19   20 ar
    36   19   22 1
    37   20   21 1
    38   21   39 1
    39   21   40 1
    40   21   41 1
    41   22   23 2
    42   22   24 1
@<TRIPOS>MOLECULE
ZINC00573720
   40    43     0     0     0
SMALL
USER_CHARGES

@<TRIPOS>ATOM
      1 C1         13.3670   -4.6009    1.0083 C.ar      1 <0>        -0.2043
      2 C2         12.2484   -3.8033    1.1782 C.ar      1 <0>        -0.0517
      3 C3         11.6879   -3.2119    0.0493 C.ar      1 <0>        -0.1116
      4 C4         10.5319   -2.3242   -0.1807 C.2       1 <0>        -0.2007
      5 C5         10.4946   -2.0897   -1.5418 C.2       1 <0>        -0.0031
      6 N1         11.5188   -2.7421   -2.1399 N.pl3     1 <0>        -0.1607
      7 H1         11.7007   -2.7265   -3.0926 H         1 <0>         0.2575
      8 C6         12.2637   -3.4372   -1.2120 C.ar      1 <0>         0.0646
      9 N2         13.3360   -4.2115   -1.3167 N.ar      1 <0>        -0.1774
     10 C7         13.8840   -4.7810   -0.2640 C.ar      1 <0>        -0.0171
     11 C8          9.6401   -1.8209    0.7931 C.2       1 <0>         0.0935
     12 C9          8.4132   -1.3090    0.4089 C.2       1 <0>        -0.1836
     13 C10         7.9830   -1.4259   -0.9520 C.1       1 <0>        -0.0742
     14 N3          7.6417   -1.5186   -2.0315 N.1       1 <0>        -0.0739
     15 C11         7.5524   -0.6460    1.3966 C.2       1 <0>         0.3647
     16 O1          7.9180   -0.5466    2.5530 O.2       1 <0>        -0.3795
     17 N4          6.3575   -0.1474    1.0224 N.am      1 <0>        -0.3829
     18 C12         5.4987    0.5141    2.0079 C.3       1 <0>         0.0429
     19 C13         4.2305    0.9774    1.3385 C.ar      1 <0>        -0.1110
     20 C14         3.1323    0.1391    1.2860 C.ar      1 <0>        -0.1074
     21 C15         1.9669    0.5594    0.6727 C.ar      1 <0>        -0.1157
     22 C16         1.8968    1.8230    0.1090 C.ar      1 <0>         0.0133
     23 C17         3.0029    2.6676    0.1624 C.ar      1 <0>         0.0013
     24 C18         4.1676    2.2397    0.7787 C.ar      1 <0>        -0.0971
     25 O2          2.6849    3.8424   -0.4558 O.3       1 <0>        -0.2062
     26 C19         1.2470    3.8623   -0.5272 C.3       1 <0>         0.1068
     27 O3          0.8860    2.4686   -0.5426 O.3       1 <0>        -0.2062
     28 H2         13.8314   -5.0780    1.8587 H         1 <0>         0.1436
     29 H3         11.8231   -3.6441    2.1581 H         1 <0>         0.1435
     30 H4          9.7632   -1.4783   -2.0495 H         1 <0>         0.2009
     31 H5         14.7567   -5.4035   -0.3955 H         1 <0>         0.1652
     32 H6          9.9161   -1.8357    1.8371 H         1 <0>         0.1697
     33 H7          6.0661   -0.2266    0.1006 H         1 <0>         0.2323
     34 H8          6.0224    1.3728    2.4280 H         1 <0>         0.1011
     35 H9          5.2534   -0.1875    2.8052 H         1 <0>         0.1014
     36 H10         3.1852   -0.8463    1.7249 H         1 <0>         0.1448
     37 H11         1.1106   -0.0975    0.6332 H         1 <0>         0.1468
     38 H12         5.0269    2.8925    0.8212 H         1 <0>         0.1487
     39 H13         0.9157    4.3540   -1.4419 H         1 <0>         0.1322
     40 H14         0.8269    4.3571    0.3485 H         1 <0>         0.0898
@<TRIPOS>BOND
     1    1   10 ar
     2    1    2 ar
     3    1   28 1
     4    2    3 ar
     5    2   29 1
     6    3    8 ar
     7    3    4 1
     8    4    5 2
     9    4   11 1
    10    5    6 1
    11    5   30 1
    12    6    7 1
    13    6    8 1
    14    8    9 ar
    15    9   10 ar
    16   10   31 1
    17   11   12 2
    18   11   32 1
    19   12   13 1
    20   12   15 1
    21   13   14 3
    22   15   16 2
    23   15   17 am
    24   17   18 1
    25   17   33 1
    26   18   19 1
    27   18   34 1
    28   18   35 1
    29   19   24 ar
    30   19   20 ar
    31   20   21 ar
    32   20   36 1
    33   21   22 ar
    34   21   37 1
    35   22   27 1
    36   22   23 ar
    37   23   24 ar
    38   23   25 1
    39   24   38 1
    40   25   26 1
    41   26   27 1
    42   26   39 1
    43   26   40 1
@<TRIPOS>MOLECULE
ZINC00581122
   42    43     0     0     0
SMALL
USER_CHARGES

@<TRIPOS>ATOM
      1 C1          4.9261   -1.1588    2.2659 C.3       1 <0>        -0.2404
      2 C2          3.8199   -0.1483    2.1043 C.2       1 <0>         0.2982
      3 O1          3.0941   -0.1938    1.1336 O.2       1 <0>        -0.3407
      4 N1          3.6369    0.8058    3.0384 N.am      1 <0>        -0.3300
      5 C3          2.5473    1.6789    2.9428 C.ar      1 <0>         0.0587
      6 C4          2.6397    2.9651    3.4616 C.ar      1 <0>        -0.1436
      7 C5          1.5665    3.8313    3.3699 C.ar      1 <0>        -0.1148
      8 C6          0.3977    3.4269    2.7574 C.ar      1 <0>        -0.1311
      9 C7          0.2928    2.1353    2.2379 C.ar      1 <0>        -0.1107
     10 C8          1.3763    1.2611    2.3306 C.ar      1 <0>        -0.0694
     11 C9         -0.9596    1.6976    1.5865 C.2       1 <0>         0.3573
     12 O2         -1.0470    0.5740    1.1303 O.2       1 <0>        -0.3079
     13 N2         -2.0028    2.5458    1.4933 N.am      1 <0>        -0.3419
     14 N3         -3.1880    2.1327    0.8707 N.2       1 <0>         0.0346
     15 C10        -4.1356    2.9913    0.6437 C.2       1 <0>        -0.1290
     16 C11        -3.8476    4.4351    0.6890 C.ar      1 <0>        -0.0610
     17 C12        -4.8896    5.3509    0.8692 C.ar      1 <0>        -0.1254
     18 C13        -4.6215    6.6893    0.9170 C.ar      1 <0>        -0.0749
     19 C14        -3.3071    7.1449    0.7742 C.ar      1 <0>        -0.1077
     20 C15        -2.2661    6.2299    0.5883 C.ar      1 <0>        -0.0618
     21 C16        -2.5329    4.8910    0.5462 C.ar      1 <0>        -0.1672
     22 C17        -3.0188    8.5910    0.8192 C.2       1 <0>         0.3471
     23 O3         -1.8769    8.9869    0.6948 O.2       1 <0>        -0.3578
     24 O4         -4.0218    9.4728    0.9983 O.3       1 <0>        -0.2670
     25 C18        -3.6645   10.8797    1.0322 C.3       1 <0>        -0.0509
     26 H1          4.7745   -1.7191    3.1885 H         1 <0>         0.0975
     27 H2          4.9184   -1.8447    1.4188 H         1 <0>         0.1222
     28 H3          5.8857   -0.6435    2.3074 H         1 <0>         0.0949
     29 H4          4.2605    0.8875    3.7769 H         1 <0>         0.2332
     30 H5          3.5534    3.2889    3.9377 H         1 <0>         0.1324
     31 H6          1.6446    4.8296    3.7746 H         1 <0>         0.1367
     32 H7         -0.4370    4.1083    2.6834 H         1 <0>         0.1241
     33 H8          1.3026    0.2621    1.9269 H         1 <0>         0.1928
     34 H9         -1.9331    3.4422    1.8572 H         1 <0>         0.2291
     35 H10        -5.1347    2.6467    0.4216 H         1 <0>         0.1871
     36 H11        -5.9053    4.9994    0.9751 H         1 <0>         0.1414
     37 H12        -5.4253    7.3962    1.0609 H         1 <0>         0.1527
     38 H13        -1.2511    6.5820    0.4777 H         1 <0>         0.1601
     39 H14        -1.7288    4.1845    0.4023 H         1 <0>         0.1607
     40 H15        -4.5625   11.4791    1.1818 H         1 <0>         0.1046
     41 H16        -2.9680   11.0580    1.8515 H         1 <0>         0.0833
     42 H17        -3.1948   11.1581    0.0889 H         1 <0>         0.0846
@<TRIPOS>BOND
     1    1    2 1
     2    1   26 1
     3    1   27 1
     4    1   28 1
     5    2    3 2
     6    2    4 am
     7    4    5 1
     8    4   29 1
     9    5   10 ar
    10    5    6 ar
    11    6    7 ar
    12    6   30 1
    13    7    8 ar
    14    7   31 1
    15    8    9 ar
    16    8   32 1
    17    9   10 ar
    18    9   11 1
    19   10   33 1
    20   11   12 2
    21   11   13 am
    22   13   14 1
    23   13   34 1
    24   14   15 2
    25   15   16 1
    26   15   35 1
    27   16   21 ar
    28   16   17 ar
    29   17   18 ar
    30   17   36 1
    31   18   19 ar
    32   18   37 1
    33   19   20 ar
    34   19   22 1
    35   20   21 ar
    36   20   38 1
    37   21   39 1
    38   22   23 2
    39   22   24 1
    40   24   25 1
    41   25   40 1
    42   25   41 1
    43   25   42 1
@<TRIPOS>MOLECULE
ZINC00581180
   41    42     0     0     0
SMALL
USER_CHARGES

@<TRIPOS>ATOM
      1 C1         -0.0277   -8.5892    1.4906 C.3       1 <0>        -0.2375
      2 C2         -0.0968   -7.0887    1.3691 C.2       1 <0>         0.2982
      3 O1          0.7653   -6.3992    1.8716 O.2       1 <0>        -0.3411
      4 N1         -1.1166   -6.5129    0.7021 N.am      1 <0>        -0.3327
      5 C3         -1.1190   -5.1302    0.4855 C.ar      1 <0>         0.0586
      6 C4         -2.3201   -4.4308    0.4730 C.ar      1 <0>        -0.1416
      7 C5         -2.3280   -3.0652    0.2600 C.ar      1 <0>        -0.1185
      8 C6         -1.1429   -2.3860    0.0625 C.ar      1 <0>        -0.1302
      9 C7          0.0685   -3.0799    0.0683 C.ar      1 <0>        -0.1093
     10 C8          0.0762   -4.4584    0.2838 C.ar      1 <0>        -0.0646
     11 C9          1.3389   -2.3559   -0.1471 C.2       1 <0>         0.3559
     12 O2          2.3932   -2.9615   -0.1366 O.2       1 <0>        -0.3102
     13 N2          1.3287   -1.0243   -0.3551 N.am      1 <0>        -0.3360
     14 N3          2.5329   -0.3380   -0.5593 N.2       1 <0>         0.0160
     15 C10         2.5370    0.9581   -0.6322 C.2       1 <0>        -0.1105
     16 C11         1.4747    1.7369    0.0296 C.ar      1 <0>        -0.1242
     17 C12         0.6535    1.1313    0.9842 C.ar      1 <0>        -0.1110
     18 C13        -0.3427    1.8604    1.5986 C.ar      1 <0>        -0.2109
     19 C14        -0.5252    3.1982    1.2794 C.ar      1 <0>         0.0831
     20 C15         0.2895    3.8085    0.3283 C.ar      1 <0>         0.0441
     21 C16         1.2868    3.0828   -0.2957 C.ar      1 <0>        -0.0974
     22 O3          0.1039    5.1186    0.0141 O.3       1 <0>        -0.2733
     23 O4         -1.5052    3.9137    1.8923 O.3       1 <0>        -0.1963
     24 C17        -2.3038    3.2260    2.8573 C.3       1 <0>        -0.0666
     25 H1          0.5329   -8.9964    0.6491 H         1 <0>         0.1099
     26 H2          0.4711   -8.8557    2.4224 H         1 <0>         0.1199
     27 H3         -1.0370   -9.0008    1.4881 H         1 <0>         0.0819
     28 H4         -1.8489   -7.0567    0.3722 H         1 <0>         0.2331
     29 H5         -3.2504   -4.9562    0.6307 H         1 <0>         0.1324
     30 H6         -3.2644   -2.5272    0.2518 H         1 <0>         0.1339
     31 H7         -1.1529   -1.3183   -0.0999 H         1 <0>         0.1241
     32 H8          1.0105   -5.0001    0.2932 H         1 <0>         0.1870
     33 H9          0.4877   -0.5411   -0.3635 H         1 <0>         0.2233
     34 H10         3.3187    1.4658   -1.1777 H         1 <0>         0.1842
     35 H11         0.7960    0.0912    1.2375 H         1 <0>         0.1547
     36 H12        -0.9795    1.3901    2.3332 H         1 <0>         0.1435
     37 H13         1.9195    3.5550   -1.0326 H         1 <0>         0.1498
     38 H14        -0.5171    5.2646   -0.7126 H         1 <0>         0.2261
     39 H15        -2.8092    2.3870    2.3791 H         1 <0>         0.0653
     40 H16        -1.6657    2.8562    3.6599 H         1 <0>         0.0735
     41 H17        -3.0457    3.9103    3.2690 H         1 <0>         0.1133
@<TRIPOS>BOND
     1    1    2 1
     2    1   25 1
     3    1   26 1
     4    1   27 1
     5    2    3 2
     6    2    4 am
     7    4    5 1
     8    4   28 1
     9    5   10 ar
    10    5    6 ar
    11    6    7 ar
    12    6   29 1
    13    7    8 ar
    14    7   30 1
    15    8    9 ar
    16    8   31 1
    17    9   10 ar
    18    9   11 1
    19   10   32 1
    20   11   12 2
    21   11   13 am
    22   13   14 1
    23   13   33 1
    24   14   15 2
    25   15   16 1
    26   15   34 1
    27   16   21 ar
    28   16   17 ar
    29   17   18 ar
    30   17   35 1
    31   18   19 ar
    32   18   36 1
    33   19   20 ar
    34   19   23 1
    35   20   21 ar
    36   20   22 1
    37   21   37 1
    38   22   38 1
    39   23   24 1
    40   24   39 1
    41   24   40 1
    42   24   41 1
@<TRIPOS>MOLECULE
ZINC00581181
   41    42     0     0     0
SMALL
USER_CHARGES

@<TRIPOS>ATOM
      1 C1         -0.6167    1.5068   -2.1652 C.3       1 <0>        -0.2375
      2 C2         -0.6040   -0.0002   -2.1692 C.2       1 <0>         0.2987
      3 O1         -1.1373   -0.6088   -3.0727 O.2       1 <0>        -0.3430
      4 N1          0.0001   -0.6716   -1.1688 N.am      1 <0>        -0.3317
      5 C3         -0.0708   -2.0685   -1.1208 C.ar      1 <0>         0.0541
      6 C4         -0.1402   -2.7191    0.1055 C.ar      1 <0>        -0.1405
      7 C5         -0.2153   -4.0982    0.1583 C.ar      1 <0>        -0.1193
      8 C6         -0.2111   -4.8393   -1.0060 C.ar      1 <0>        -0.1258
      9 C7         -0.1363   -4.1958   -2.2426 C.ar      1 <0>        -0.1103
     10 C8         -0.0659   -2.8033   -2.2958 C.ar      1 <0>        -0.0646
     11 C9         -0.1312   -4.9868   -3.4911 C.2       1 <0>         0.3638
     12 O2         -0.0655   -4.4242   -4.5671 O.2       1 <0>        -0.3133
     13 N2         -0.1992   -6.3318   -3.4370 N.am      1 <0>        -0.3298
     14 N3         -0.1944   -7.0816   -4.6205 N.2       1 <0>         0.0054
     15 C10        -0.2599   -8.3770   -4.5683 C.2       1 <0>        -0.1084
     16 C11        -0.2548   -9.1660   -5.8136 C.ar      1 <0>        -0.0751
     17 C12        -0.1853   -8.5210   -7.0511 C.ar      1 <0>        -0.0555
     18 C13        -0.1757   -9.2611   -8.2145 C.ar      1 <0>        -0.2190
     19 C14        -0.2457  -10.6456   -8.1604 C.ar      1 <0>         0.0855
     20 C15        -0.3206  -11.2953   -6.9303 C.ar      1 <0>         0.0345
     21 C16        -0.3253  -10.5605   -5.7595 C.ar      1 <0>        -0.1015
     22 O3         -0.3887  -12.6527   -6.8813 O.3       1 <0>        -0.2749
     23 O4         -0.2417  -11.3701   -9.3106 O.3       1 <0>        -0.1989
     24 C17        -0.1630  -10.6404  -10.5367 C.3       1 <0>        -0.0664
     25 H1         -1.5021    1.8612   -1.6375 H         1 <0>         0.1080
     26 H2          0.2776    1.8764   -1.6636 H         1 <0>         0.0828
     27 H3         -0.6349    1.8726   -3.1918 H         1 <0>         0.1203
     28 H4          0.4839   -0.1867   -0.4821 H         1 <0>         0.2330
     29 H5         -0.1398   -2.1448    1.0202 H         1 <0>         0.1320
     30 H6         -0.2729   -4.5979    1.1141 H         1 <0>         0.1347
     31 H7         -0.2654   -5.9170   -0.9604 H         1 <0>         0.1226
     32 H8         -0.0083   -2.2998   -3.2495 H         1 <0>         0.1928
     33 H9         -0.2516   -6.7806   -2.5787 H         1 <0>         0.2083
     34 H10        -0.3182   -8.8768   -3.6127 H         1 <0>         0.1142
     35 H11        -0.1348   -7.4431   -7.0963 H         1 <0>         0.1637
     36 H12        -0.1182   -8.7616   -9.1703 H         1 <0>         0.1435
     37 H13        -0.3829  -11.0630   -4.8053 H         1 <0>         0.1433
     38 H14        -1.2902  -13.0022   -6.8977 H         1 <0>         0.2233
     39 H15        -0.1684  -11.3370  -11.3751 H         1 <0>         0.1105
     40 H16        -1.0187   -9.9698  -10.6160 H         1 <0>         0.0683
     41 H17         0.7581  -10.0578  -10.5543 H         1 <0>         0.0718
@<TRIPOS>BOND
     1    1    2 1
     2    1   25 1
     3    1   26 1
     4    1   27 1
     5    2    3 2
     6    2    4 am
     7    4    5 1
     8    4   28 1
     9    5   10 ar
    10    5    6 ar
    11    6    7 ar
    12    6   29 1
    13    7    8 ar
    14    7   30 1
    15    8    9 ar
    16    8   31 1
    17    9   10 ar
    18    9   11 1
    19   10   32 1
    20   11   12 2
    21   11   13 am
    22   13   14 1
    23   13   33 1
    24   14   15 2
    25   15   16 1
    26   15   34 1
    27   16   21 ar
    28   16   17 ar
    29   17   18 ar
    30   17   35 1
    31   18   19 ar
    32   18   36 1
    33   19   20 ar
    34   19   23 1
    35   20   21 ar
    36   20   22 1
    37   21   37 1
    38   22   38 1
    39   23   24 1
    40   24   39 1
    41   24   40 1
    42   24   41 1
@<TRIPOS>MOLECULE
ZINC00581954
   42    43     0     0     0
SMALL
USER_CHARGES

@<TRIPOS>ATOM
      1 C1          1.2141    2.3639    6.0076 C.3       1 <0>        -0.2386
      2 C2          0.0978    2.9655    5.1932 C.2       1 <0>         0.3020
      3 O1         -0.2280    4.1201    5.3707 O.2       1 <0>        -0.3510
      4 N1         -0.5384    2.2204    4.2677 N.am      1 <0>        -0.3300
      5 C3         -1.6329    2.7458    3.5818 C.ar      1 <0>         0.0874
      6 C4         -1.6608    4.0968    3.2501 C.ar      1 <0>        -0.1360
      7 C5         -2.7371    4.6176    2.5680 C.ar      1 <0>        -0.0919
      8 C6         -3.8080    3.7899    2.2186 C.ar      1 <0>        -0.1509
      9 C7         -3.7792    2.4343    2.5585 C.ar      1 <0>        -0.0453
     10 C8         -2.6971    1.9190    3.2356 C.ar      1 <0>        -0.1741
     11 C9         -4.9657    4.3456    1.4925 C.2       1 <0>         0.3609
     12 O2         -5.8965    3.6242    1.1889 O.2       1 <0>        -0.3229
     13 N2         -4.9919    5.6529    1.1656 N.am      1 <0>        -0.3411
     14 N3         -6.0913    6.1806    0.4760 N.2       1 <0>         0.0325
     15 C10        -6.0543    7.4002    0.0310 C.2       1 <0>        -0.1277
     16 C11        -4.7668    8.1083   -0.0704 C.ar      1 <0>        -0.0615
     17 C12        -4.7392    9.5060   -0.1214 C.ar      1 <0>        -0.1247
     18 C13        -3.5448   10.1626   -0.2091 C.ar      1 <0>        -0.0742
     19 C14        -2.3503    9.4374   -0.2606 C.ar      1 <0>        -0.1063
     20 C15        -2.3779    8.0400   -0.2155 C.ar      1 <0>        -0.0613
     21 C16        -3.5716    7.3831   -0.1215 C.ar      1 <0>        -0.1682
     22 C17        -1.0607   10.1467   -0.3622 C.2       1 <0>         0.3471
     23 O3         -0.0227    9.5167   -0.4066 O.2       1 <0>        -0.3573
     24 O4         -1.0340   11.4932   -0.4056 O.3       1 <0>        -0.2669
     25 C18         0.2701   12.1238   -0.5056 C.3       1 <0>        -0.0509
     26 H1          2.1630    2.5197    5.4944 H         1 <0>         0.1078
     27 H2          1.2478    2.8416    6.9867 H         1 <0>         0.1209
     28 H3          1.0388    1.2951    6.1306 H         1 <0>         0.0858
     29 H4         -0.2324    1.3201    4.0760 H         1 <0>         0.2354
     30 H5         -0.8352    4.7367    3.5246 H         1 <0>         0.1709
     31 H6         -2.7561    5.6654    2.3069 H         1 <0>         0.1286
     32 H7         -4.6047    1.7919    2.2898 H         1 <0>         0.1605
     33 H8         -2.6740    0.8716    3.4982 H         1 <0>         0.1369
     34 H9         -4.2495    6.2283    1.4077 H         1 <0>         0.2306
     35 H10        -6.9675    7.8951   -0.2647 H         1 <0>         0.1871
     36 H11        -5.6621   10.0660   -0.0864 H         1 <0>         0.1416
     37 H12        -3.5232   11.2419   -0.2432 H         1 <0>         0.1531
     38 H13        -1.4552    7.4802   -0.2554 H         1 <0>         0.1600
     39 H14        -3.5929    6.3039   -0.0871 H         1 <0>         0.1587
     40 H15         0.7654   11.7914   -1.4179 H         1 <0>         0.0840
     41 H16         0.1490   13.2067   -0.5318 H         1 <0>         0.1046
     42 H17         0.8749   11.8466    0.3578 H         1 <0>         0.0842
@<TRIPOS>BOND
     1    1    2 1
     2    1   26 1
     3    1   27 1
     4    1   28 1
     5    2    3 2
     6    2    4 am
     7    4    5 1
     8    4   29 1
     9    5   10 ar
    10    5    6 ar
    11    6    7 ar
    12    6   30 1
    13    7    8 ar
    14    7   31 1
    15    8    9 ar
    16    8   11 1
    17    9   10 ar
    18    9   32 1
    19   10   33 1
    20   11   12 2
    21   11   13 am
    22   13   14 1
    23   13   34 1
    24   14   15 2
    25   15   16 1
    26   15   35 1
    27   16   21 ar
    28   16   17 ar
    29   17   18 ar
    30   17   36 1
    31   18   19 ar
    32   18   37 1
    33   19   20 ar
    34   19   22 1
    35   20   21 ar
    36   20   38 1
    37   21   39 1
    38   22   23 2
    39   22   24 1
    40   24   25 1
    41   25   40 1
    42   25   41 1
    43   25   42 1
@<TRIPOS>MOLECULE
ZINC00581973
   43    44     0     0     0
SMALL
USER_CHARGES

@<TRIPOS>ATOM
      1 C1          5.1350    5.0132   -0.5255 C.3       1 <0>        -0.2039
      2 C2          5.2465    3.6424    0.1450 C.3       1 <0>        -0.0763
      3 C3          5.7084    3.8188    1.5929 C.3       1 <0>        -0.2037
      4 C4          3.9014    2.9631    0.1260 C.ar      1 <0>        -0.0820
      5 C5          3.7508    1.7486   -0.5179 C.ar      1 <0>        -0.1101
      6 C6          2.5196    1.1233   -0.5367 C.ar      1 <0>        -0.1220
      7 C7          1.4318    1.7157    0.0917 C.ar      1 <0>         0.0525
      8 C8          1.5851    2.9382    0.7327 C.ar      1 <0>        -0.1578
      9 C9          2.8205    3.5554    0.7531 C.ar      1 <0>        -0.1090
     10 N1          0.1836    1.0853    0.0741 N.am      1 <0>        -0.3228
     11 C10         0.1066   -0.2590    0.1339 C.2       1 <0>         0.3469
     12 O1          1.1222   -0.9275    0.1170 O.2       1 <0>        -0.3504
     13 C11        -1.2095   -0.9191    0.2200 C.ar      1 <0>        -0.1242
     14 C12        -2.3779   -0.1517    0.2454 C.ar      1 <0>        -0.1034
     15 C13        -3.6045   -0.7709    0.3198 C.ar      1 <0>        -0.1471
     16 C14        -3.6824   -2.1595    0.3816 C.ar      1 <0>         0.0555
     17 C15        -2.5205   -2.9264    0.3623 C.ar      1 <0>        -0.1187
     18 C16        -1.2911   -2.3134    0.2821 C.ar      1 <0>        -0.0590
     19 N2         -4.9232   -2.7820    0.4622 N.pl3     1 <0>        -0.8279
     20 S1         -5.4341   -3.4271    1.8992 S.o2      1 <0>         2.6785
     21 O2         -6.7253   -3.9519    1.6224 O.2       1 <0>        -0.9041
     22 O3         -4.3765   -4.2833    2.3087 O.2       1 <0>        -0.8987
     23 C17        -5.5636   -2.0113    3.0259 C.3       1 <0>        -0.8249
     24 H1          6.1079    5.5045   -0.5118 H         1 <0>         0.0739
     25 H2          4.8059    4.8875   -1.5570 H         1 <0>         0.0775
     26 H3          4.4118    5.6241    0.0148 H         1 <0>         0.0739
     27 H4          5.9697    3.0314   -0.3953 H         1 <0>         0.0944
     28 H5          5.7878    2.8422    2.0705 H         1 <0>         0.0802
     29 H6          6.6813    4.3101    1.6065 H         1 <0>         0.0733
     30 H7          4.9852    4.4298    2.1331 H         1 <0>         0.0741
     31 H8          4.5970    1.2885   -1.0064 H         1 <0>         0.1350
     32 H9          2.4028    0.1744   -1.0392 H         1 <0>         0.1645
     33 H10         0.7402    3.4036    1.2184 H         1 <0>         0.1267
     34 H11         2.9416    4.5035    1.2558 H         1 <0>         0.1329
     35 H12        -0.6267    1.6153    0.0148 H         1 <0>         0.2316
     36 H13        -2.3179    0.9258    0.2024 H         1 <0>         0.1291
     37 H14        -4.5076   -0.1788    0.3346 H         1 <0>         0.1377
     38 H15        -2.5842   -4.0034    0.4100 H         1 <0>         0.1655
     39 H16        -0.3902   -2.9089    0.2668 H         1 <0>         0.1663
     40 H17        -5.4895   -2.8383   -0.3233 H         1 <0>         0.2579
     41 H18        -6.3442   -1.3369    2.6738 H         1 <0>         0.1352
     42 H19        -5.8130   -2.3648    4.0264 H         1 <0>         0.1443
     43 H20        -4.6114   -1.4815    3.0546 H         1 <0>         0.1385
@<TRIPOS>BOND
     1    1    2 1
     2    1   24 1
     3    1   25 1
     4    1   26 1
     5    2    3 1
     6    2    4 1
     7    2   27 1
     8    3   28 1
     9    3   29 1
    10    3   30 1
    11    4    9 ar
    12    4    5 ar
    13    5    6 ar
    14    5   31 1
    15    6    7 ar
    16    6   32 1
    17    7    8 ar
    18    7   10 1
    19    8    9 ar
    20    8   33 1
    21    9   34 1
    22   10   11 am
    23   10   35 1
    24   11   12 2
    25   11   13 1
    26   13   18 ar
    27   13   14 ar
    28   14   15 ar
    29   14   36 1
    30   15   16 ar
    31   15   37 1
    32   16   17 ar
    33   16   19 1
    34   17   18 ar
    35   17   38 1
    36   18   39 1
    37   19   20 1
    38   19   40 1
    39   20   21 2
    40   20   22 2
    41   20   23 1
    42   23   41 1
    43   23   42 1
    44   23   43 1
@<TRIPOS>MOLECULE
ZINC00582103
   42    44     0     0     0
SMALL
USER_CHARGES

@<TRIPOS>ATOM
      1 C1        -13.4519    1.7357   -0.2961 C.3       1 <0>        -0.2355
      2 C2        -12.1637    0.9622   -0.4112 C.2       1 <0>         0.2981
      3 O1        -11.1969    1.4694   -0.9393 O.2       1 <0>        -0.3416
      4 N1        -12.0860   -0.2933    0.0728 N.am      1 <0>        -0.3318
      5 C3        -10.8617   -0.9713    0.0661 C.ar      1 <0>         0.0576
      6 C4        -10.8310   -2.3485   -0.1193 C.ar      1 <0>        -0.1414
      7 C5         -9.6245   -3.0228   -0.1272 C.ar      1 <0>        -0.1179
      8 C6         -8.4417   -2.3327    0.0446 C.ar      1 <0>        -0.1269
      9 C7         -8.4620   -0.9500    0.2365 C.ar      1 <0>        -0.1083
     10 C8         -9.6800   -0.2695    0.2440 C.ar      1 <0>        -0.0650
     11 C9         -7.1972   -0.2089    0.4249 C.2       1 <0>         0.3638
     12 O2         -7.2170    0.9961    0.5869 O.2       1 <0>        -0.3130
     13 N2         -6.0220   -0.8686    0.4173 N.am      1 <0>        -0.3295
     14 N3         -4.8231   -0.1660    0.5959 N.2       1 <0>         0.0089
     15 C10        -3.6912   -0.8015    0.5886 C.2       1 <0>        -0.1094
     16 C11        -2.4297   -0.0623    0.7766 C.ar      1 <0>        -0.0502
     17 C12        -2.4497    1.3224    0.9633 C.ar      1 <0>        -0.0869
     18 C13        -1.2681    2.0108    1.1342 C.ar      1 <0>        -0.1311
     19 C14        -0.0555    1.3331    1.1293 C.ar      1 <0>         0.0319
     20 C15        -0.0284   -0.0463    0.9460 C.ar      1 <0>         0.0105
     21 C16        -1.2105   -0.7436    0.7691 C.ar      1 <0>        -0.1056
     22 O3          1.1519   -0.7250    0.9391 O.3       1 <0>        -0.2065
     23 C17         2.3391    0.0511    0.7446 C.3       1 <0>        -0.0516
     24 C18         2.2626    1.2822    1.6577 C.3       1 <0>        -0.0524
     25 O4          1.0985    2.0344    1.2996 O.3       1 <0>        -0.2026
     26 H1        -14.2013    1.1213    0.2031 H         1 <0>         0.0770
     27 H2        -13.2806    2.6426    0.2838 H         1 <0>         0.1172
     28 H3        -13.8057    2.0026   -1.2920 H         1 <0>         0.1150
     29 H4        -12.8787   -0.7270    0.4258 H         1 <0>         0.2330
     30 H5        -11.7530   -2.8935   -0.2581 H         1 <0>         0.1322
     31 H6         -9.6070   -4.0929   -0.2721 H         1 <0>         0.1346
     32 H7         -7.5007   -2.8627    0.0341 H         1 <0>         0.1227
     33 H8         -9.7018    0.8006    0.3882 H         1 <0>         0.1872
     34 H9         -6.0062   -1.8298    0.2881 H         1 <0>         0.2084
     35 H10        -3.6736   -1.8717    0.4448 H         1 <0>         0.1148
     36 H11        -3.3903    1.8531    0.9706 H         1 <0>         0.1665
     37 H12        -1.2854    3.0809    1.2790 H         1 <0>         0.1504
     38 H13        -1.1903   -1.8137    0.6249 H         1 <0>         0.1439
     39 H14         3.2144   -0.5448    1.0033 H         1 <0>         0.1214
     40 H15         2.4048    0.3680   -0.2963 H         1 <0>         0.0949
     41 H16         2.1892    0.9644    2.6978 H         1 <0>         0.0952
     42 H17         3.1530    1.8962    1.5223 H         1 <0>         0.1221
@<TRIPOS>BOND
     1    1    2 1
     2    1   26 1
     3    1   27 1
     4    1   28 1
     5    2    3 2
     6    2    4 am
     7    4    5 1
     8    4   29 1
     9    5   10 ar
    10    5    6 ar
    11    6    7 ar
    12    6   30 1
    13    7    8 ar
    14    7   31 1
    15    8    9 ar
    16    8   32 1
    17    9   10 ar
    18    9   11 1
    19   10   33 1
    20   11   12 2
    21   11   13 am
    22   13   14 1
    23   13   34 1
    24   14   15 2
    25   15   16 1
    26   15   35 1
    27   16   21 ar
    28   16   17 ar
    29   17   18 ar
    30   17   36 1
    31   18   19 ar
    32   18   37 1
    33   19   25 1
    34   19   20 ar
    35   20   21 ar
    36   20   22 1
    37   21   38 1
    38   22   23 1
    39   23   24 1
    40   23   39 1
    41   23   40 1
    42   24   25 1
    43   24   41 1
    44   24   42 1
@<TRIPOS>MOLECULE
ZINC00582152
   41    42     0     0     0
SMALL
USER_CHARGES

@<TRIPOS>ATOM
      1 C1         -0.0277   -8.5892    1.4906 C.3       1 <0>        -0.2375
      2 C2         -0.0968   -7.0887    1.3691 C.2       1 <0>         0.2982
      3 O1          0.7653   -6.3992    1.8716 O.2       1 <0>        -0.3410
      4 N1         -1.1166   -6.5129    0.7021 N.am      1 <0>        -0.3327
      5 C3         -1.1190   -5.1302    0.4855 C.ar      1 <0>         0.0585
      6 C4         -2.3201   -4.4308    0.4730 C.ar      1 <0>        -0.1408
      7 C5         -2.3280   -3.0652    0.2600 C.ar      1 <0>        -0.1178
      8 C6         -1.1429   -2.3860    0.0625 C.ar      1 <0>        -0.1292
      9 C7          0.0685   -3.0799    0.0683 C.ar      1 <0>        -0.1099
     10 C8          0.0762   -4.4584    0.2838 C.ar      1 <0>        -0.0645
     11 C9          1.3389   -2.3559   -0.1471 C.2       1 <0>         0.3564
     12 O2          2.3932   -2.9615   -0.1366 O.2       1 <0>        -0.3098
     13 N2          1.3287   -1.0243   -0.3551 N.am      1 <0>        -0.3348
     14 N3          2.5329   -0.3380   -0.5593 N.2       1 <0>         0.0248
     15 C10         2.5370    0.9581   -0.6322 C.2       1 <0>        -0.1212
     16 C11         1.4747    1.7369    0.0296 C.ar      1 <0>        -0.0653
     17 C12         0.6535    1.1313    0.9842 C.ar      1 <0>        -0.1692
     18 C13        -0.3427    1.8604    1.5986 C.ar      1 <0>        -0.1180
     19 C14        -0.5252    3.1982    1.2794 C.ar      1 <0>         0.0523
     20 C15         0.2895    3.8085    0.3283 C.ar      1 <0>         0.0749
     21 C16         1.2868    3.0828   -0.2957 C.ar      1 <0>        -0.1924
     22 O3          0.1039    5.1186    0.0141 O.3       1 <0>        -0.1978
     23 C17         0.9757    5.6797   -0.9693 C.3       1 <0>        -0.0666
     24 O4         -1.5052    3.9137    1.8923 O.3       1 <0>        -0.2738
     25 H1          0.5329   -8.9964    0.6491 H         1 <0>         0.1096
     26 H2          0.4711   -8.8557    2.4224 H         1 <0>         0.1200
     27 H3         -1.0370   -9.0008    1.4881 H         1 <0>         0.0820
     28 H4         -1.8489   -7.0567    0.3722 H         1 <0>         0.2331
     29 H5         -3.2504   -4.9562    0.6307 H         1 <0>         0.1326
     30 H6         -3.2644   -2.5272    0.2518 H         1 <0>         0.1346
     31 H7         -1.1529   -1.3183   -0.0999 H         1 <0>         0.1243
     32 H8          1.0105   -5.0001    0.2932 H         1 <0>         0.1867
     33 H9          0.4877   -0.5411   -0.3635 H         1 <0>         0.2257
     34 H10         3.3187    1.4658   -1.1777 H         1 <0>         0.1835
     35 H11         0.7960    0.0912    1.2375 H         1 <0>         0.1553
     36 H12        -0.9795    1.3901    2.3332 H         1 <0>         0.1495
     37 H13         1.9195    3.5550   -1.0326 H         1 <0>         0.1433
     38 H14         0.7205    6.7278   -1.1255 H         1 <0>         0.1132
     39 H15         2.0074    5.6043   -0.6256 H         1 <0>         0.0715
     40 H16         0.8643    5.1350   -1.9068 H         1 <0>         0.0661
     41 H17        -2.3563    3.8879    1.4339 H         1 <0>         0.2261
@<TRIPOS>BOND
     1    1    2 1
     2    1   25 1
     3    1   26 1
     4    1   27 1
     5    2    3 2
     6    2    4 am
     7    4    5 1
     8    4   28 1
     9    5   10 ar
    10    5    6 ar
    11    6    7 ar
    12    6   29 1
    13    7    8 ar
    14    7   30 1
    15    8    9 ar
    16    8   31 1
    17    9   10 ar
    18    9   11 1
    19   10   32 1
    20   11   12 2
    21   11   13 am
    22   13   14 1
    23   13   33 1
    24   14   15 2
    25   15   16 1
    26   15   34 1
    27   16   21 ar
    28   16   17 ar
    29   17   18 ar
    30   17   35 1
    31   18   19 ar
    32   18   36 1
    33   19   20 ar
    34   19   24 1
    35   20   21 ar
    36   20   22 1
    37   21   37 1
    38   22   23 1
    39   23   38 1
    40   23   39 1
    41   23   40 1
    42   24   41 1
@<TRIPOS>MOLECULE
ZINC00582153
   41    42     0     0     0
SMALL
USER_CHARGES

@<TRIPOS>ATOM
      1 C1         -4.0350   11.8331   -0.3072 C.3       1 <0>        -0.2403
      2 C2         -4.0588   10.3303   -0.4168 C.2       1 <0>         0.2981
      3 O1         -3.1391    9.7465   -0.9500 O.2       1 <0>        -0.3402
      4 N1         -5.1021    9.6350    0.0777 N.am      1 <0>        -0.3330
      5 C3         -5.0745    8.2357    0.0757 C.ar      1 <0>         0.0587
      6 C4         -6.2519    7.5177   -0.0981 C.ar      1 <0>        -0.1412
      7 C5         -6.2300    6.1357   -0.1018 C.ar      1 <0>        -0.1176
      8 C6         -5.0383    5.4593    0.0627 C.ar      1 <0>        -0.1273
      9 C7         -3.8510    6.1711    0.2434 C.ar      1 <0>        -0.1086
     10 C8         -3.8732    7.5661    0.2466 C.ar      1 <0>        -0.0649
     11 C9         -2.5739    5.4494    0.4245 C.2       1 <0>         0.3639
     12 O2         -1.5403    6.0715    0.5766 O.2       1 <0>        -0.3112
     13 N2         -2.5550    4.1018    0.4210 N.am      1 <0>        -0.3298
     14 N3         -1.3445    3.4177    0.5927 N.2       1 <0>         0.0157
     15 C10        -1.3264    2.1197    0.5893 C.2       1 <0>        -0.1174
     16 C11        -0.0527    1.3999    0.7699 C.ar      1 <0>        -0.0179
     17 C12         1.1370    2.1130    0.9391 C.ar      1 <0>        -0.1119
     18 C13         2.3281    1.4378    1.1023 C.ar      1 <0>        -0.1268
     19 C14         2.3490    0.0506    1.0993 C.ar      1 <0>         0.0553
     20 C15         1.1668   -0.6671    0.9307 C.ar      1 <0>         0.0656
     21 C16        -0.0311    0.0027    0.7666 C.ar      1 <0>        -0.1954
     22 O3          1.1914   -2.0268    0.9280 O.3       1 <0>        -0.1992
     23 C17        -0.0576   -2.6979    0.7507 C.3       1 <0>        -0.0651
     24 O4          3.5260   -0.6101    1.2610 O.3       1 <0>        -0.2769
     25 H1         -4.0693   12.1214    0.7435 H         1 <0>         0.0975
     26 H2         -3.1200   12.2159   -0.7593 H         1 <0>         0.1220
     27 H3         -4.8984   12.2490   -0.8264 H         1 <0>         0.0945
     28 H4         -5.8722   10.1044    0.4349 H         1 <0>         0.2330
     29 H5         -7.1870    8.0414   -0.2311 H         1 <0>         0.1325
     30 H6         -7.1480    5.5833   -0.2377 H         1 <0>         0.1347
     31 H7         -5.0247    4.3794    0.0555 H         1 <0>         0.1221
     32 H8         -2.9574    8.1223    0.3821 H         1 <0>         0.1875
     33 H9         -3.3796    3.6055    0.2996 H         1 <0>         0.2087
     34 H10        -2.2444    1.5671    0.4542 H         1 <0>         0.1136
     35 H11         1.1236    3.1930    0.9418 H         1 <0>         0.1647
     36 H12         3.2469    1.9901    1.2330 H         1 <0>         0.1497
     37 H13        -0.9483   -0.5525    0.6365 H         1 <0>         0.1372
     38 H14        -0.4915   -2.4109   -0.2072 H         1 <0>         0.0647
     39 H15         0.1033   -3.7758    0.7682 H         1 <0>         0.1105
     40 H16        -0.7375   -2.4189    1.5557 H         1 <0>         0.0682
     41 H17         3.9889   -0.7972    0.4329 H         1 <0>         0.2263
@<TRIPOS>BOND
     1    1    2 1
     2    1   25 1
     3    1   26 1
     4    1   27 1
     5    2    3 2
     6    2    4 am
     7    4    5 1
     8    4   28 1
     9    5   10 ar
    10    5    6 ar
    11    6    7 ar
    12    6   29 1
    13    7    8 ar
    14    7   30 1
    15    8    9 ar
    16    8   31 1
    17    9   10 ar
    18    9   11 1
    19   10   32 1
    20   11   12 2
    21   11   13 am
    22   13   14 1
    23   13   33 1
    24   14   15 2
    25   15   16 1
    26   15   34 1
    27   16   21 ar
    28   16   17 ar
    29   17   18 ar
    30   17   35 1
    31   18   19 ar
    32   18   36 1
    33   19   20 ar
    34   19   24 1
    35   20   21 ar
    36   20   22 1
    37   21   37 1
    38   22   23 1
    39   23   38 1
    40   23   39 1
    41   23   40 1
    42   24   41 1
@<TRIPOS>MOLECULE
ZINC00582183
   42    44     0     0     0
SMALL
USER_CHARGES

@<TRIPOS>ATOM
      1 C1         -7.0997    9.7194   -0.1870 C.3       1 <0>        -0.2359
      2 C2         -7.1245    8.2156   -0.0925 C.2       1 <0>         0.3011
      3 O1         -8.1071    7.6016   -0.4508 O.2       1 <0>        -0.3488
      4 N1         -6.0547    7.5530    0.3903 N.am      1 <0>        -0.3299
      5 C3         -6.0412    6.1586    0.3930 C.ar      1 <0>         0.0851
      6 C4         -7.2183    5.4535    0.6232 C.ar      1 <0>        -0.1388
      7 C5         -7.2086    4.0768    0.6261 C.ar      1 <0>        -0.0461
      8 C6         -6.0144    3.3875    0.3974 C.ar      1 <0>        -0.1488
      9 C7         -4.8326    4.0991    0.1721 C.ar      1 <0>        -0.0917
     10 C8         -4.8506    5.4756    0.1649 C.ar      1 <0>        -0.1723
     11 C9         -6.0001    1.9121    0.3997 C.2       1 <0>         0.3586
     12 O2         -7.0284    1.2943    0.6007 O.2       1 <0>        -0.3214
     13 N2         -4.8477    1.2490    0.1789 N.am      1 <0>        -0.3356
     14 N3         -4.8342   -0.1519    0.1811 N.2       1 <0>         0.0189
     15 C10        -3.7072   -0.7903    0.0949 C.2       1 <0>        -0.1132
     16 C11        -2.4601   -0.1486    0.5488 C.ar      1 <0>        -0.0979
     17 C12        -2.5114    0.9992    1.3441 C.ar      1 <0>        -0.1453
     18 C13        -1.3434    1.5990    1.7628 C.ar      1 <0>        -0.1227
     19 C14        -0.1130    1.0633    1.4039 C.ar      1 <0>         0.0287
     20 C15        -0.0545   -0.0810    0.6137 C.ar      1 <0>         0.0202
     21 C16        -1.2231   -0.6860    0.1857 C.ar      1 <0>        -0.1011
     22 O3          1.1435   -0.6185    0.2539 O.3       1 <0>        -0.2026
     23 C17         2.2928    0.2248    0.3868 C.3       1 <0>        -0.0524
     24 C18         2.2327    0.9047    1.7613 C.3       1 <0>        -0.0527
     25 O4          1.0270    1.6734    1.8290 O.3       1 <0>        -0.2035
     26 H1         -6.1421   10.0907    0.1781 H         1 <0>         0.0783
     27 H2         -7.2339   10.0204   -1.2260 H         1 <0>         0.1172
     28 H3         -7.9052   10.1349    0.4186 H         1 <0>         0.1153
     29 H4         -5.2943    8.0461    0.7359 H         1 <0>         0.2339
     30 H5         -8.1408    5.9867    0.7995 H         1 <0>         0.1724
     31 H6         -8.1228    3.5301    0.8045 H         1 <0>         0.1637
     32 H7         -3.9073    3.5696   -0.0005 H         1 <0>         0.1267
     33 H8         -3.9387    6.0260   -0.0134 H         1 <0>         0.1326
     34 H9         -4.0277    1.7417    0.0186 H         1 <0>         0.2253
     35 H10        -3.6832   -1.7915   -0.3093 H         1 <0>         0.1847
     36 H11        -3.4657    1.4176    1.6279 H         1 <0>         0.1562
     37 H12        -1.3849    2.4859    2.3776 H         1 <0>         0.1488
     38 H13        -1.1787   -1.5729   -0.4290 H         1 <0>         0.1509
     39 H14         3.1997   -0.3754    0.3128 H         1 <0>         0.1249
     40 H15         2.2871    0.9806   -0.3986 H         1 <0>         0.0952
     41 H16         2.2307    0.1480    2.5459 H         1 <0>         0.0978
     42 H17         3.0943    1.5608    1.8849 H         1 <0>         0.1240
@<TRIPOS>BOND
     1    1    2 1
     2    1   26 1
     3    1   27 1
     4    1   28 1
     5    2    3 2
     6    2    4 am
     7    4    5 1
     8    4   29 1
     9    5   10 ar
    10    5    6 ar
    11    6    7 ar
    12    6   30 1
    13    7    8 ar
    14    7   31 1
    15    8    9 ar
    16    8   11 1
    17    9   10 ar
    18    9   32 1
    19   10   33 1
    20   11   12 2
    21   11   13 am
    22   13   14 1
    23   13   34 1
    24   14   15 2
    25   15   16 1
    26   15   35 1
    27   16   21 ar
    28   16   17 ar
    29   17   18 ar
    30   17   36 1
    31   18   19 ar
    32   18   37 1
    33   19   25 1
    34   19   20 ar
    35   20   21 ar
    36   20   22 1
    37   21   38 1
    38   22   23 1
    39   23   24 1
    40   23   39 1
    41   23   40 1
    42   24   25 1
    43   24   41 1
    44   24   42 1
@<TRIPOS>MOLECULE
ZINC00582398
   41    42     0     0     0
SMALL
USER_CHARGES

@<TRIPOS>ATOM
      1 C1         -5.2719   13.5780   -0.2731 C.3       1 <0>        -0.2376
      2 C2         -5.2943   12.0752   -0.3825 C.2       1 <0>         0.2982
      3 O1         -4.3760   11.4925   -0.9194 O.2       1 <0>        -0.3413
      4 N1         -6.3348   11.3786    0.1162 N.am      1 <0>        -0.3321
      5 C3         -6.3055    9.9794    0.1141 C.ar      1 <0>         0.0577
      6 C4         -7.4827    9.2599   -0.0550 C.ar      1 <0>        -0.1420
      7 C5         -7.4592    7.8779   -0.0582 C.ar      1 <0>        -0.1182
      8 C6         -6.2660    7.2030    0.1020 C.ar      1 <0>        -0.1274
      9 C7         -5.0788    7.9163    0.2775 C.ar      1 <0>        -0.1080
     10 C8         -5.1027    9.3113    0.2803 C.ar      1 <0>        -0.0653
     11 C9         -3.8002    7.1961    0.4535 C.2       1 <0>         0.3624
     12 O2         -2.7666    7.8195    0.6011 O.2       1 <0>        -0.3072
     13 N2         -3.7797    5.8485    0.4505 N.am      1 <0>        -0.3329
     14 N3         -2.5677    5.1659    0.6174 N.2       1 <0>         0.0386
     15 C10        -2.5480    3.8679    0.6144 C.2       1 <0>        -0.1237
     16 C11        -1.2731    3.1498    0.7900 C.ar      1 <0>        -0.0392
     17 C12        -1.2473    1.7522    0.7825 C.ar      1 <0>        -0.1377
     18 C13        -0.0533    1.0842    0.9518 C.ar      1 <0>        -0.1065
     19 C14         1.1253    1.7910    1.1197 C.ar      1 <0>        -0.2019
     20 C15         1.1156    3.1768    1.1249 C.ar      1 <0>         0.0646
     21 C16        -0.0812    3.8641    0.9602 C.ar      1 <0>         0.0835
     22 O3         -0.0943    5.2231    0.9647 O.3       1 <0>        -0.2499
     23 O4          2.2773    3.8643    1.2907 O.3       1 <0>        -0.1954
     24 C17         3.4695    3.0937    1.4540 C.3       1 <0>        -0.0649
     25 H1         -4.7841   13.8673    0.6577 H         1 <0>         0.1096
     26 H2         -4.7220   13.9956   -1.1165 H         1 <0>         0.1196
     27 H3         -6.2935   13.9582   -0.2813 H         1 <0>         0.0817
     28 H4         -7.1040   11.8471    0.4765 H         1 <0>         0.2328
     29 H5         -8.4189    9.7825   -0.1847 H         1 <0>         0.1319
     30 H6         -8.3770    7.3244   -0.1904 H         1 <0>         0.1342
     31 H7         -6.2513    6.1231    0.0952 H         1 <0>         0.1225
     32 H8         -4.1870    9.8686    0.4118 H         1 <0>         0.1876
     33 H9         -4.6042    5.3512    0.3327 H         1 <0>         0.2062
     34 H10        -3.4660    3.3142    0.4833 H         1 <0>         0.1152
     35 H11        -2.1631    1.1959    0.6475 H         1 <0>         0.1319
     36 H12        -0.0366    0.0044    0.9491 H         1 <0>         0.1327
     37 H13         2.0569    1.2597    1.2476 H         1 <0>         0.1378
     38 H14         0.0247    5.6205    0.0913 H         1 <0>         0.2386
     39 H15         3.6219    2.4692    0.5737 H         1 <0>         0.0647
     40 H16         4.3210    3.7632    1.5763 H         1 <0>         0.1110
     41 H17         3.3752    2.4609    2.3364 H         1 <0>         0.0682
@<TRIPOS>BOND
     1    1    2 1
     2    1   25 1
     3    1   26 1
     4    1   27 1
     5    2    3 2
     6    2    4 am
     7    4    5 1
     8    4   28 1
     9    5   10 ar
    10    5    6 ar
    11    6    7 ar
    12    6   29 1
    13    7    8 ar
    14    7   30 1
    15    8    9 ar
    16    8   31 1
    17    9   10 ar
    18    9   11 1
    19   10   32 1
    20   11   12 2
    21   11   13 am
    22   13   14 1
    23   13   33 1
    24   14   15 2
    25   15   16 1
    26   15   34 1
    27   16   21 ar
    28   16   17 ar
    29   17   18 ar
    30   17   35 1
    31   18   19 ar
    32   18   36 1
    33   19   20 ar
    34   19   37 1
    35   20   21 ar
    36   20   23 1
    37   21   22 1
    38   22   38 1
    39   23   24 1
    40   24   39 1
    41   24   40 1
    42   24   41 1
@<TRIPOS>MOLECULE
ZINC00582562
   37    38     0     0     0
SMALL
USER_CHARGES

@<TRIPOS>ATOM
      1 C1          5.5670   -0.3983   -0.4872 C.3       1 <0>        -0.1752
      2 C2          4.9058    0.3174    0.6625 C.ar      1 <0>        -0.0406
      3 C3          4.7369   -0.3293    1.8733 C.ar      1 <0>        -0.1432
      4 C4          4.1312    0.3238    2.9308 C.ar      1 <0>        -0.0973
      5 C5          3.6920    1.6247    2.7809 C.ar      1 <0>        -0.1021
      6 C6          3.8600    2.2771    1.5663 C.ar      1 <0>         0.0842
      7 C7          4.4648    1.6163    0.5043 C.ar      1 <0>        -0.1796
      8 N1          3.4167    3.5925    1.4110 N.pl3     1 <0>        -0.8046
      9 S1          2.7841    4.0876   -0.0371 S.o2      1 <0>         2.7593
     10 O1          2.3944    5.4436    0.1324 O.2       1 <0>        -0.8954
     11 O2          1.8720    3.0784   -0.4481 O.2       1 <0>        -0.8890
     12 C8          4.1001    4.0846   -1.2087 C.ar      1 <0>        -0.7651
     13 C9          4.0534    3.2348   -2.2940 C.ar      1 <0>         0.0371
     14 C10         5.0969    3.2332   -3.2211 C.ar      1 <0>        -0.1517
     15 C11         6.1804    4.0965   -3.0459 C.ar      1 <0>        -0.0484
     16 C12         6.2184    4.9378   -1.9543 C.ar      1 <0>        -0.1487
     17 C13         5.1796    4.9351   -1.0378 C.ar      1 <0>         0.0564
     18 Cl1         5.2314    6.0019    0.3308 Cl        1 <0>         0.0051
     19 C14         5.0529    2.3251   -4.3862 C.2       1 <0>         0.3476
     20 O3          4.1065    1.5775   -4.5386 O.2       1 <0>        -0.3539
     21 N2          6.0619    2.3258   -5.2797 N.am      1 <0>        -0.4269
     22 C15         3.0310    2.3354    3.9337 C.3       1 <0>        -0.1674
     23 H1          4.8102   -0.9160   -1.0765 H         1 <0>         0.0969
     24 H2          6.0849    0.3258   -1.1163 H         1 <0>         0.0794
     25 H3          6.2843   -1.1221   -0.1003 H         1 <0>         0.0817
     26 H4          5.0787   -1.3467    1.9930 H         1 <0>         0.1329
     27 H5          4.0009   -0.1841    3.8750 H         1 <0>         0.1339
     28 H6          4.5929    2.1192   -0.4429 H         1 <0>         0.1366
     29 H7          3.4794    4.2160    2.1515 H         1 <0>         0.2562
     30 H8          3.2109    2.5722   -2.4265 H         1 <0>         0.1929
     31 H9          6.9887    4.1027   -3.7622 H         1 <0>         0.1355
     32 H10         7.0576    5.6033   -1.8157 H         1 <0>         0.1534
     33 H11         6.8170    2.9223   -5.1581 H         1 <0>         0.2146
     34 H12         6.0330    1.7297   -6.0444 H         1 <0>         0.2369
     35 H13         1.9555    2.1612    3.8994 H         1 <0>         0.0936
     36 H14         3.4310    1.9540    4.8732 H         1 <0>         0.0827
     37 H15         3.2282    3.4050    3.8624 H         1 <0>         0.0721
@<TRIPOS>BOND
     1    1    2 1
     2    1   23 1
     3    1   24 1
     4    1   25 1
     5    2    7 ar
     6    2    3 ar
     7    3    4 ar
     8    3   26 1
     9    4    5 ar
    10    4   27 1
    11    5    6 ar
    12    5   22 1
    13    6    7 ar
    14    6    8 1
    15    7   28 1
    16    8    9 1
    17    8   29 1
    18    9   10 2
    19    9   11 2
    20    9   12 1
    21   12   17 ar
    22   12   13 ar
    23   13   14 ar
    24   13   30 1
    25   14   15 ar
    26   14   19 1
    27   15   16 ar
    28   15   31 1
    29   16   17 ar
    30   16   32 1
    31   17   18 1
    32   19   20 2
    33   19   21 am
    34   21   33 1
    35   21   34 1
    36   22   35 1
    37   22   36 1
    38   22   37 1
@<TRIPOS>MOLECULE
ZINC00585137
   42    44     0     0     0
SMALL
USER_CHARGES

@<TRIPOS>ATOM
      1 C1         -5.0085    4.9775    0.9310 C.ar      1 <0>        -0.1937
      2 C2         -6.2089    5.6569    0.9368 C.ar      1 <0>        -0.0148
      3 C3         -7.2344    5.2633    0.0953 C.ar      1 <0>        -0.7733
      4 C4         -7.0624    4.1896   -0.7604 C.ar      1 <0>        -0.0205
      5 C5         -5.8656    3.5040   -0.7802 C.ar      1 <0>        -0.1350
      6 C6         -4.8261    3.8961    0.0662 C.ar      1 <0>         0.0486
      7 N1         -3.6361    3.2202    0.0521 N.2       1 <0>        -0.1559
      8 C7         -2.5108    3.8805    0.0449 C.2       1 <0>         0.0126
      9 C8         -1.2340    3.1552    0.0299 C.ar      1 <0>        -0.1185
     10 C9         -0.0248    3.8605    0.0221 C.ar      1 <0>        -0.0739
     11 C10         1.1689    3.1766    0.0075 C.ar      1 <0>        -0.1748
     12 C11         1.1796    1.7852    0.0004 C.ar      1 <0>         0.1079
     13 C12        -0.0126    1.0758    0.0080 C.ar      1 <0>        -0.1980
     14 C13        -1.2205    1.7508    0.0173 C.ar      1 <0>         0.1388
     15 O1         -2.3876    1.0583    0.0196 O.3       1 <0>        -0.2673
     16 O2          2.3622    1.1187   -0.0145 O.3       1 <0>        -0.2912
     17 S1         -8.7666    6.1331    0.1138 S.o2      1 <0>         2.7814
     18 O3         -8.4882    7.4357    0.6088 O.2       1 <0>        -0.9160
     19 O4         -9.3740    5.9129   -1.1519 O.2       1 <0>        -0.9132
     20 N2         -9.7343    5.3965    1.2377 N.pl3     1 <0>        -0.8502
     21 C14       -10.6645    4.2891    0.9735 C.3       1 <0>         0.0023
     22 C15       -11.3635    3.9497    2.3068 C.3       1 <0>        -0.1711
     23 C16       -11.2098    5.2614    3.1210 C.3       1 <0>        -0.1693
     24 C17        -9.8103    5.7468    2.6678 C.3       1 <0>        -0.0042
     25 H1         -4.2103    5.2832    1.5913 H         1 <0>         0.1363
     26 H2         -6.3501    6.4956    1.6023 H         1 <0>         0.1486
     27 H3         -7.8671    3.8877   -1.4145 H         1 <0>         0.1519
     28 H4         -5.7326    2.6664   -1.4488 H         1 <0>         0.1533
     29 H5         -2.5184    4.9604    0.0501 H         1 <0>         0.1151
     30 H6         -0.0289    4.9405    0.0279 H         1 <0>         0.1388
     31 H7          2.1011    3.7218    0.0019 H         1 <0>         0.1458
     32 H8          0.0021   -0.0041    0.0020 H         1 <0>         0.1549
     33 H9         -2.7216    0.8532    0.9036 H         1 <0>         0.2406
     34 H10         2.6964    0.9304   -0.9021 H         1 <0>         0.2353
     35 H11       -11.4035    4.5944    0.2326 H         1 <0>         0.0949
     36 H12       -10.1136    3.4199    0.6142 H         1 <0>         0.0763
     37 H13       -10.8622    3.1227    2.8096 H         1 <0>         0.0910
     38 H14       -12.4160    3.7185    2.1430 H         1 <0>         0.0948
     39 H15       -11.2257    5.0605    4.1922 H         1 <0>         0.0932
     40 H16       -11.9805    5.9827    2.8490 H         1 <0>         0.0981
     41 H17        -9.0302    5.2301    3.2269 H         1 <0>         0.0761
     42 H18        -9.7217    6.8251    2.7994 H         1 <0>         0.1045
@<TRIPOS>BOND
     1    1    6 ar
     2    1    2 ar
     3    1   25 1
     4    2    3 ar
     5    2   26 1
     6    3    4 ar
     7    3   17 1
     8    4    5 ar
     9    4   27 1
    10    5    6 ar
    11    5   28 1
    12    6    7 1
    13    7    8 2
    14    8    9 1
    15    8   29 1
    16    9   14 ar
    17    9   10 ar
    18   10   11 ar
    19   10   30 1
    20   11   12 ar
    21   11   31 1
    22   12   13 ar
    23   12   16 1
    24   13   14 ar
    25   13   32 1
    26   14   15 1
    27   15   33 1
    28   16   34 1
    29   17   18 2
    30   17   19 2
    31   17   20 1
    32   20   24 1
    33   20   21 1
    34   21   22 1
    35   21   35 1
    36   21   36 1
    37   22   23 1
    38   22   37 1
    39   22   38 1
    40   23   24 1
    41   23   39 1
    42   23   40 1
    43   24   41 1
    44   24   42 1
@<TRIPOS>MOLECULE
ZINC00588371
   40    41     0     0     0
SMALL
USER_CHARGES

@<TRIPOS>ATOM
      1 C1         -1.9076    3.6215   -2.7560 C.3       1 <0>        -0.2421
      2 C2         -1.1066    3.1950   -1.5529 C.2       1 <0>         0.3249
      3 O1         -0.6500    4.0301   -0.8012 O.2       1 <0>        -0.3285
      4 N1         -0.8975    1.8855   -1.3122 N.am      1 <0>        -0.8304
      5 S1         -0.0172    1.4168    0.0098 S.o2      1 <0>         2.7494
      6 O2          0.0021   -0.0041    0.0020 O.2       1 <0>        -0.9139
      7 O3          1.1718    2.1948    0.0027 O.2       1 <0>        -0.8841
      8 C3         -0.9267    1.9002    1.4394 C.ar      1 <0>        -0.7752
      9 C4         -0.7144    3.1466    2.0017 C.ar      1 <0>         0.0085
     10 C5         -1.4270    3.5338    3.1175 C.ar      1 <0>        -0.1925
     11 C6         -2.3567    2.6603    3.6861 C.ar      1 <0>         0.0552
     12 C7         -2.5617    1.4016    3.1166 C.ar      1 <0>        -0.1435
     13 C8         -1.8459    1.0296    1.9978 C.ar      1 <0>        -0.0229
     14 N2         -3.0632    3.0358    4.7965 N.2       1 <0>        -0.1502
     15 C9         -2.4529    3.6151    5.7923 C.2       1 <0>         0.0127
     16 C10        -3.2119    4.0186    6.9853 C.ar      1 <0>        -0.0733
     17 C11        -2.5606    4.6408    8.0566 C.ar      1 <0>        -0.1269
     18 C12        -3.2757    5.0170    9.1721 C.ar      1 <0>        -0.1085
     19 C13        -4.6394    4.7829    9.2413 C.ar      1 <0>        -0.1924
     20 C14        -5.2986    4.1682    8.1896 C.ar      1 <0>         0.0595
     21 C15        -4.5926    3.7873    7.0536 C.ar      1 <0>         0.0961
     22 O4         -5.2366    3.1895    6.0182 O.3       1 <0>        -0.2517
     23 O5         -6.6376    3.9421    8.2656 O.3       1 <0>        -0.1978
     24 C16        -7.3001    4.3645    9.4591 C.3       1 <0>        -0.0654
     25 H1         -2.9116    3.2020   -2.6913 H         1 <0>         0.1005
     26 H2         -1.9695    4.7094   -2.7842 H         1 <0>         0.1212
     27 H3         -1.4212    3.2615   -3.6626 H         1 <0>         0.1025
     28 H4         -1.2626    1.2175   -1.9134 H         1 <0>         0.2528
     29 H5          0.0080    3.8193    1.5636 H         1 <0>         0.1699
     30 H6         -1.2635    4.5086    3.5528 H         1 <0>         0.1418
     31 H7         -3.2793    0.7213    3.5510 H         1 <0>         0.1465
     32 H8         -2.0034    0.0566    1.5563 H         1 <0>         0.1478
     33 H9         -1.3899    3.7988    5.7410 H         1 <0>         0.1170
     34 H10        -1.4977    4.8263    8.0084 H         1 <0>         0.1362
     35 H11        -2.7707    5.4973    9.9971 H         1 <0>         0.1359
     36 H12        -5.1915    5.0811   10.1203 H         1 <0>         0.1399
     37 H13        -5.2727    2.2252    6.0815 H         1 <0>         0.2333
     38 H14        -6.8670    3.8497   10.3168 H         1 <0>         0.0658
     39 H15        -7.1774    5.4407    9.5813 H         1 <0>         0.0696
     40 H16        -8.3613    4.1254    9.3897 H         1 <0>         0.1120
@<TRIPOS>BOND
     1    1    2 1
     2    1   25 1
     3    1   26 1
     4    1   27 1
     5    2    3 2
     6    2    4 am
     7    4    5 1
     8    4   28 1
     9    5    6 2
    10    5    7 2
    11    5    8 1
    12    8   13 ar
    13    8    9 ar
    14    9   10 ar
    15    9   29 1
    16   10   11 ar
    17   10   30 1
    18   11   12 ar
    19   11   14 1
    20   12   13 ar
    21   12   31 1
    22   13   32 1
    23   14   15 2
    24   15   16 1
    25   15   33 1
    26   16   21 ar
    27   16   17 ar
    28   17   18 ar
    29   17   34 1
    30   18   19 ar
    31   18   35 1
    32   19   20 ar
    33   19   36 1
    34   20   21 ar
    35   20   23 1
    36   21   22 1
    37   22   37 1
    38   23   24 1
    39   24   38 1
    40   24   39 1
    41   24   40 1
@<TRIPOS>MOLECULE
ZINC00594085
   48    50     0     0     0
SMALL
USER_CHARGES

@<TRIPOS>ATOM
      1 C1          0.6455   10.5111   -4.1715 C.3       1 <0>        -0.1909
      2 C2          2.1284   10.1956   -3.9654 C.3       1 <0>        -0.7127
      3 C3          2.9596   10.9502   -5.0048 C.3       1 <0>        -0.1902
      4 S1          2.6303   10.7106   -2.3000 S.o2      1 <0>         2.6875
      5 O1          2.2608   12.0640   -2.0741 O.2       1 <0>        -0.9097
      6 O2          3.9519   10.2653   -2.0275 O.2       1 <0>        -0.9083
      7 N1          1.6693    9.8336   -1.2756 N.pl3     1 <0>        -0.8828
      8 C4          1.7954    8.3750   -1.2219 C.3       1 <0>        -0.0015
      9 C5          1.0935    7.8482    0.0314 C.3       1 <0>        -0.0814
     10 H1          0.0605    8.1958    0.0425 H         1 <0>         0.0981
     11 C6          1.8184    8.3632    1.2765 C.3       1 <0>        -0.2037
     12 C7          1.1164    6.3414    0.0241 C.ar      1 <0>        -0.0719
     13 C8         -0.0723    5.6341    0.0317 C.ar      1 <0>        -0.1198
     14 C9         -0.0573    4.2541    0.0246 C.ar      1 <0>        -0.1153
     15 C10         1.1585    3.5732    0.0097 C.ar      1 <0>        -0.0368
     16 C11         2.3531    4.2908    0.0080 C.ar      1 <0>        -0.1133
     17 C12         2.3261    5.6707    0.0094 C.ar      1 <0>        -0.1197
     18 C13         1.1811    2.0898    0.0020 C.ar      1 <0>        -0.0284
     19 C14        -0.0166    1.3745    0.0096 C.ar      1 <0>        -0.1076
     20 C15         0.0021   -0.0041    0.0020 C.ar      1 <0>        -0.1195
     21 C16         1.2131   -0.6810   -0.0132 C.ar      1 <0>        -0.0226
     22 C17         2.4149    0.0288   -0.0209 C.ar      1 <0>         0.0143
     23 C18         2.3976    1.4126   -0.0133 C.ar      1 <0>        -0.0888
     24 O3          3.4198   -0.8814   -0.0355 O.3       1 <0>        -0.1287
     25 C19         2.8951   -2.1169   -0.0371 C.2       1 <0>         0.3925
     26 O4          3.5346   -3.1510   -0.0491 O.2       1 <0>        -0.3221
     27 N2          1.5502   -2.0339   -0.0237 N.am      1 <0>        -0.3180
     28 H2          0.9296   -2.7794   -0.0218 H         1 <0>         0.2748
     29 H3          0.4829   11.5829   -4.0582 H         1 <0>         0.0962
     30 H4          0.3439   10.2016   -5.1722 H         1 <0>         0.0910
     31 H5          0.0533    9.9734   -3.4310 H         1 <0>         0.0770
     32 H6          2.2910    9.1238   -4.0787 H         1 <0>         0.1370
     33 H7          4.0160   10.7255   -4.8580 H         1 <0>         0.0893
     34 H8          2.6580   10.6408   -6.0055 H         1 <0>         0.0931
     35 H9          2.7970   12.0221   -4.8915 H         1 <0>         0.0907
     36 H10         1.0228   10.2856   -0.7110 H         1 <0>         0.2458
     37 H11         2.8503    8.1025   -1.1892 H         1 <0>         0.1052
     38 H12         1.3344    7.9376   -2.1075 H         1 <0>         0.0735
     39 H13         2.8514    8.0156    1.2653 H         1 <0>         0.0846
     40 H14         1.8018    9.4531    1.2818 H         1 <0>         0.0817
     41 H15         1.3183    7.9879    2.1693 H         1 <0>         0.0814
     42 H16        -1.0140    6.1628    0.0436 H         1 <0>         0.1331
     43 H17        -0.9860    3.7029    0.0309 H         1 <0>         0.1334
     44 H18         3.2982    3.7682    0.0014 H         1 <0>         0.1373
     45 H19         3.2513    6.2279    0.0035 H         1 <0>         0.1396
     46 H20        -0.9595    1.9011    0.0169 H         1 <0>         0.1443
     47 H21        -0.9257   -0.5569    0.0083 H         1 <0>         0.1397
     48 H22         3.3252    1.9657   -0.0196 H         1 <0>         0.1529
@<TRIPOS>BOND
     1    1    2 1
     2    1   29 1
     3    1   30 1
     4    1   31 1
     5    2    3 1
     6    2    4 1
     7    2   32 1
     8    3   33 1
     9    3   34 1
    10    3   35 1
    11    4    5 2
    12    4    6 2
    13    4    7 1
    14    7    8 1
    15    7   36 1
    16    8    9 1
    17    8   37 1
    18    8   38 1
    19    9   10 1
    20    9   11 1
    21    9   12 1
    22   11   39 1
    23   11   40 1
    24   11   41 1
    25   12   17 ar
    26   12   13 ar
    27   13   14 ar
    28   13   42 1
    29   14   15 ar
    30   14   43 1
    31   15   16 ar
    32   15   18 1
    33   16   17 ar
    34   16   44 1
    35   17   45 1
    36   18   23 ar
    37   18   19 ar
    38   19   20 ar
    39   19   46 1
    40   20   21 ar
    41   20   47 1
    42   21   27 1
    43   21   22 ar
    44   22   23 ar
    45   22   24 1
    46   23   48 1
    47   24   25 1
    48   25   26 2
    49   25   27 am
    50   27   28 1
@<TRIPOS>MOLECULE
ZINC00594111
   46    49     0     0     0
SMALL
USER_CHARGES

@<TRIPOS>ATOM
      1 C1          7.8442    0.2497   -0.9322 C.ar      1 <0>        -0.1251
      2 C2          8.4139   -0.9397   -1.3815 C.ar      1 <0>        -0.1192
      3 C3          7.6378   -1.9930   -1.7562 C.ar      1 <0>        -0.0980
      4 C4          6.2362   -1.8849   -1.6915 C.ar      1 <0>         0.0264
      5 C5          5.6621   -0.6701   -1.2392 C.ar      1 <0>        -0.0558
      6 C6          6.4902    0.3907   -0.8561 C.ar      1 <0>        -0.1034
      7 C7          4.2045   -0.5660   -1.1688 C.ar      1 <0>        -0.0660
      8 C8          3.4670   -1.6725   -1.5639 C.ar      1 <0>        -0.1587
      9 C9          4.1362   -2.8263   -2.0015 C.ar      1 <0>         0.0492
     10 N1          5.4501   -2.9005   -2.0522 N.ar      1 <0>        -0.1311
     11 C10         3.3370   -4.0011   -2.4202 C.ar      1 <0>        -0.0932
     12 C11         1.9437   -3.9525   -2.3708 C.ar      1 <0>        -0.0790
     13 C12         1.2028   -5.0455   -2.7651 C.ar      1 <0>        -0.1766
     14 C13         1.8410   -6.1996   -3.2027 C.ar      1 <0>         0.1087
     15 C14         3.2269   -6.2555   -3.2490 C.ar      1 <0>        -0.2073
     16 C15         3.9766   -5.1625   -2.8601 C.ar      1 <0>         0.1572
     17 F1          5.3258   -5.2164   -2.9054 F         1 <0>        -0.0723
     18 O1          1.1065   -7.2759   -3.5858 O.3       1 <0>        -0.2883
     19 C16         3.5434    0.6717   -0.7009 C.2       1 <0>         0.3709
     20 O2          4.0239    1.7556   -0.9684 O.2       1 <0>        -0.3711
     21 N2          2.4084    0.5976    0.0220 N.am      1 <0>        -0.3345
     22 C17         1.6745   -0.6397    0.3447 C.3       1 <0>        -0.0262
     23 C18         0.8779   -0.3044    1.6303 C.3       1 <0>        -0.1752
     24 C19         0.4735    1.1708    1.3703 C.3       1 <0>        -0.1709
     25 C20         1.6965    1.7372    0.6186 C.3       1 <0>         0.0455
     26 H1          2.3513    2.2592    1.3164 H         1 <0>         0.1084
     27 C21         1.2337    2.6951   -0.4810 C.3       1 <0>        -0.0226
     28 O3          0.2800    2.0360   -1.3165 O.3       1 <0>        -0.3594
     29 H2          8.4830    1.0700   -0.6402 H         1 <0>         0.1334
     30 H3          9.4891   -1.0274   -1.4329 H         1 <0>         0.1330
     31 H4          8.0957   -2.9082   -2.1015 H         1 <0>         0.1512
     32 H5          6.0593    1.3174   -0.5067 H         1 <0>         0.1653
     33 H6          2.3877   -1.6467   -1.5347 H         1 <0>         0.1498
     34 H7          1.4460   -3.0577   -2.0274 H         1 <0>         0.1398
     35 H8          0.1241   -5.0063   -2.7303 H         1 <0>         0.1455
     36 H9          3.7196   -7.1544   -3.5890 H         1 <0>         0.1578
     37 H10         0.9091   -7.8931   -2.8679 H         1 <0>         0.2333
     38 H11         2.3717   -1.4562    0.5325 H         1 <0>         0.0947
     39 H12         0.9941   -0.8996   -0.4662 H         1 <0>         0.0896
     40 H13         1.5104   -0.3861    2.5142 H         1 <0>         0.0949
     41 H14        -0.0024   -0.9406    1.7215 H         1 <0>         0.0968
     42 H15        -0.4196    1.2218    0.7474 H         1 <0>         0.1164
     43 H16         0.3197    1.7000    2.3107 H         1 <0>         0.0923
     44 H17         0.7741    3.5735   -0.0279 H         1 <0>         0.0620
     45 H18         2.0910    3.0018   -1.0802 H         1 <0>         0.0990
     46 H19        -0.0575    2.5852   -2.0373 H         1 <0>         0.2127
@<TRIPOS>BOND
     1    1    6 ar
     2    1    2 ar
     3    1   29 1
     4    2    3 ar
     5    2   30 1
     6    3    4 ar
     7    3   31 1
     8    4   10 ar
     9    4    5 ar
    10    5    6 ar
    11    5    7 ar
    12    6   32 1
    13    7    8 ar
    14    7   19 1
    15    8    9 ar
    16    8   33 1
    17    9   10 ar
    18    9   11 1
    19   11   16 ar
    20   11   12 ar
    21   12   13 ar
    22   12   34 1
    23   13   14 ar
    24   13   35 1
    25   14   15 ar
    26   14   18 1
    27   15   16 ar
    28   15   36 1
    29   16   17 1
    30   18   37 1
    31   19   20 2
    32   19   21 am
    33   21   25 1
    34   21   22 1
    35   22   23 1
    36   22   38 1
    37   22   39 1
    38   23   24 1
    39   23   40 1
    40   23   41 1
    41   24   25 1
    42   24   42 1
    43   24   43 1
    44   25   26 1
    45   25   27 1
    46   27   28 1
    47   27   44 1
    48   27   45 1
    49   28   46 1
@<TRIPOS>MOLECULE
ZINC00596539
   43    45     0     0     0
SMALL
USER_CHARGES

@<TRIPOS>ATOM
      1 C1         -5.6639    5.0661   -1.6367 C.3       1 <0>        -0.1360
      2 C2         -4.6507    3.9586   -1.5027 C.2       1 <0>        -0.1628
      3 C3         -4.8905    2.6410   -1.5989 C.2       1 <0>        -0.0165
      4 N1         -3.7284    1.9421   -1.4227 N.pl3     1 <0>        -0.1909
      5 H1         -3.6498    0.9756   -1.4486 H         1 <0>         0.2421
      6 C4         -2.6855    2.8162   -1.2031 C.ar      1 <0>        -0.0094
      7 C5         -3.2176    4.1157   -1.2437 C.ar      1 <0>        -0.0587
      8 C6         -2.3813    5.2192   -1.0519 C.ar      1 <0>        -0.0974
      9 C7         -1.0470    5.0313   -0.8251 C.ar      1 <0>        -0.1249
     10 C8         -0.5125    3.7519   -0.7760 C.ar      1 <0>        -0.1800
     11 C9         -1.3192    2.6439   -0.9694 C.ar      1 <0>         0.0743
     12 N2         -0.7704    1.3586   -0.9253 N.pl3     1 <0>        -0.7986
     13 S1          0.4638    1.0208    0.1260 S.o2      1 <0>         2.7720
     14 O1          0.0780    1.5479    1.3879 O.2       1 <0>        -0.9038
     15 O2          0.7917   -0.3493   -0.0594 O.2       1 <0>        -0.8857
     16 C10         1.8655    1.9497   -0.4005 C.ar      1 <0>        -0.7515
     17 C11         2.4112    2.9084    0.4335 C.ar      1 <0>         0.0083
     18 C12         3.5099    3.6379    0.0231 C.ar      1 <0>        -0.2115
     19 C13         4.0661    3.4081   -1.2271 C.ar      1 <0>         0.1425
     20 C14         3.5169    2.4460   -2.0618 C.ar      1 <0>        -0.1183
     21 C15         2.4212    1.7150   -1.6444 C.ar      1 <0>         0.0147
     22 N3          1.8387    0.6838   -2.5319 N.pl3     1 <0>         0.5435
     23 O3          2.3976    0.3904   -3.5735 O.2       1 <0>        -0.3236
     24 O4          0.8003    0.1284   -2.2206 O.3       1 <0>        -0.3557
     25 O5          5.1474    4.1243   -1.6330 O.3       1 <0>        -0.1961
     26 C16         5.6602    5.0979   -0.7213 C.3       1 <0>        -0.0673
     27 C17        -6.2399    2.0241   -1.8627 C.3       1 <0>        -0.1558
     28 H2         -6.0867    5.2921   -0.6578 H         1 <0>         0.0806
     29 H3         -5.1785    5.9561   -2.0372 H         1 <0>         0.0807
     30 H4         -6.4593    4.7510   -2.3121 H         1 <0>         0.0739
     31 H5         -2.7890    6.2188   -1.0832 H         1 <0>         0.1318
     32 H6         -0.4037    5.8861   -0.6773 H         1 <0>         0.1283
     33 H7          0.5432    3.6195   -0.5904 H         1 <0>         0.1299
     34 H8         -1.1125    0.6647   -1.5105 H         1 <0>         0.2643
     35 H9          1.9781    3.0866    1.4067 H         1 <0>         0.1769
     36 H10         3.9359    4.3862    0.6750 H         1 <0>         0.1534
     37 H11         3.9480    2.2654   -3.0354 H         1 <0>         0.1823
     38 H12         6.5204    5.5965   -1.1681 H         1 <0>         0.1221
     39 H13         4.8866    5.8341   -0.5029 H         1 <0>         0.0749
     40 H14         5.9647    4.6059    0.2024 H         1 <0>         0.0758
     41 H15        -6.7440    1.8338   -0.9152 H         1 <0>         0.0930
     42 H16        -6.8407    2.7073   -2.4631 H         1 <0>         0.0989
     43 H17        -6.1111    1.0849   -2.4007 H         1 <0>         0.0803
@<TRIPOS>BOND
     1    1    2 1
     2    1   28 1
     3    1   29 1
     4    1   30 1
     5    2    7 1
     6    2    3 2
     7    3    4 1
     8    3   27 1
     9    4    5 1
    10    4    6 1
    11    6   11 ar
    12    6    7 ar
    13    7    8 ar
    14    8    9 ar
    15    8   31 1
    16    9   10 ar
    17    9   32 1
    18   10   11 ar
    19   10   33 1
    20   11   12 1
    21   12   13 1
    22   12   34 1
    23   13   14 2
    24   13   15 2
    25   13   16 1
    26   16   21 ar
    27   16   17 ar
    28   17   18 ar
    29   17   35 1
    30   18   19 ar
    31   18   36 1
    32   19   20 ar
    33   19   25 1
    34   20   21 ar
    35   20   37 1
    36   21   22 1
    37   22   23 2
    38   22   24 1
    39   25   26 1
    40   26   38 1
    41   26   39 1
    42   26   40 1
    43   27   41 1
    44   27   42 1
    45   27   43 1
@<TRIPOS>MOLECULE
ZINC00596540
   44    46     0     0     0
SMALL
USER_CHARGES

@<TRIPOS>ATOM
      1 C1         -3.1440    7.1576    6.6845 C.3       1 <0>        -0.1364
      2 C2         -3.8676    6.4459    5.5705 C.2       1 <0>        -0.1588
      3 C3         -4.6546    5.3649    5.6922 C.2       1 <0>        -0.0236
      4 N1         -5.1386    5.0009    4.4661 N.pl3     1 <0>        -0.1961
      5 H1         -5.7292    4.2495    4.3006 H         1 <0>         0.2375
      6 C4         -4.6620    5.8616    3.5007 C.ar      1 <0>        -0.0123
      7 C5         -3.8461    6.8029    4.1501 C.ar      1 <0>        -0.0671
      8 C6         -3.2203    7.8118    3.4123 C.ar      1 <0>        -0.0948
      9 C7         -3.4036    7.8803    2.0600 C.ar      1 <0>        -0.1325
     10 C8         -4.2017    6.9514    1.4078 C.ar      1 <0>        -0.1667
     11 C9         -4.8370    5.9472    2.1176 C.ar      1 <0>         0.0491
     12 N2         -5.6452    5.0198    1.4526 N.pl3     1 <0>        -0.8126
     13 S1         -5.2358    4.5040   -0.0668 S.o2      1 <0>         2.7656
     14 O1         -5.0579    5.6710   -0.8577 O.2       1 <0>        -0.9111
     15 O2         -6.1621    3.4833   -0.4125 O.2       1 <0>        -0.9176
     16 C10        -3.6568    3.7314    0.0532 C.ar      1 <0>        -0.7780
     17 C11        -3.5698    2.3762    0.3144 C.ar      1 <0>        -0.0083
     18 C12        -2.3336    1.7675    0.4082 C.ar      1 <0>        -0.1899
     19 C13        -1.1772    2.5179    0.2403 C.ar      1 <0>         0.1215
     20 C14        -1.2679    3.8798   -0.0158 C.ar      1 <0>        -0.1512
     21 C15        -2.5072    4.4814   -0.1145 C.ar      1 <0>        -0.0018
     22 N3          0.0767    1.9042    0.3346 N.am      1 <0>        -0.3334
     23 C16         1.1019    2.3463   -0.4205 C.2       1 <0>         0.3010
     24 O3          0.9160    3.2142   -1.2471 O.2       1 <0>        -0.3434
     25 C17         2.4790    1.7622   -0.2377 C.3       1 <0>        -0.2389
     26 C18        -4.9600    4.6583    6.9877 C.3       1 <0>        -0.1547
     27 H2         -2.1540    6.7200    6.8125 H         1 <0>         0.0791
     28 H3         -3.0449    8.2144    6.4365 H         1 <0>         0.0825
     29 H4         -3.7099    7.0532    7.6103 H         1 <0>         0.0737
     30 H5         -2.5931    8.5363    3.9104 H         1 <0>         0.1313
     31 H6         -2.9186    8.6611    1.4931 H         1 <0>         0.1355
     32 H7         -4.3325    7.0156    0.3377 H         1 <0>         0.1828
     33 H8         -6.4456    4.6787    1.8814 H         1 <0>         0.2456
     34 H9         -4.4694    1.7932    0.4449 H         1 <0>         0.1482
     35 H10        -2.2663    0.7090    0.6115 H         1 <0>         0.1346
     36 H11        -0.3703    4.4670   -0.1421 H         1 <0>         0.1667
     37 H12        -2.5784    5.5396   -0.3184 H         1 <0>         0.1563
     38 H13         0.2072    1.1580    0.9405 H         1 <0>         0.2351
     39 H14         2.6006    0.9044   -0.8991 H         1 <0>         0.1090
     40 H15         3.2284    2.5161   -0.4789 H         1 <0>         0.1206
     41 H16         2.6042    1.4437    0.7972 H         1 <0>         0.0853
     42 H17        -4.2183    3.8782    7.1597 H         1 <0>         0.0901
     43 H18        -4.9303    5.3751    7.8084 H         1 <0>         0.0995
     44 H19        -5.9522    4.2104    6.9322 H         1 <0>         0.0787
@<TRIPOS>BOND
     1    1    2 1
     2    1   27 1
     3    1   28 1
     4    1   29 1
     5    2    7 1
     6    2    3 2
     7    3    4 1
     8    3   26 1
     9    4    5 1
    10    4    6 1
    11    6   11 ar
    12    6    7 ar
    13    7    8 ar
    14    8    9 ar
    15    8   30 1
    16    9   10 ar
    17    9   31 1
    18   10   11 ar
    19   10   32 1
    20   11   12 1
    21   12   13 1
    22   12   33 1
    23   13   14 2
    24   13   15 2
    25   13   16 1
    26   16   21 ar
    27   16   17 ar
    28   17   18 ar
    29   17   34 1
    30   18   19 ar
    31   18   35 1
    32   19   20 ar
    33   19   22 1
    34   20   21 ar
    35   20   36 1
    36   21   37 1
    37   22   23 am
    38   22   38 1
    39   23   24 2
    40   23   25 1
    41   25   39 1
    42   25   40 1
    43   25   41 1
    44   26   42 1
    45   26   43 1
    46   26   44 1
@<TRIPOS>MOLECULE
ZINC00600716
   46    48     0     0     0
SMALL
USER_CHARGES

@<TRIPOS>ATOM
      1 C1          1.9345   -3.3278   -5.0948 C.3       1 <0>        -0.2537
      2 C2          1.7423   -2.8549   -3.6769 C.2       1 <0>         0.2702
      3 O1          2.6818   -2.4063   -3.0546 O.2       1 <0>        -0.2953
      4 C3          0.4174   -2.9373   -3.0486 C.ar      1 <0>        -0.2076
      5 C4         -0.6702   -3.4542   -3.7635 C.ar      1 <0>        -0.0486
      6 C5         -1.8980   -3.5292   -3.1741 C.ar      1 <0>        -0.1789
      7 C6         -2.0824   -3.0953   -1.8610 C.ar      1 <0>         0.1624
      8 C7         -1.0116   -2.5785   -1.1452 C.ar      1 <0>        -0.2052
      9 C8          0.2345   -2.4995   -1.7325 C.ar      1 <0>        -0.0165
     10 C9         -1.1752   -2.0947    0.2735 C.3       1 <0>         0.0604
     11 H1         -0.3262   -2.4278    0.8705 H         1 <0>         0.1270
     12 C10        -2.4674   -2.6626    0.8657 C.3       1 <0>         0.0040
     13 H2         -2.6989   -2.1517    1.8003 H         1 <0>         0.1089
     14 C11        -3.6004   -2.4340   -0.1430 C.3       1 <0>         0.0930
     15 O2         -3.3205   -3.1990   -1.3160 O.3       1 <0>        -0.1880
     16 C12        -3.6784   -0.9490   -0.5029 C.3       1 <0>        -0.2356
     17 C13        -4.9300   -2.8878    0.4628 C.3       1 <0>        -0.1963
     18 O3         -2.3123   -4.0626    1.1068 O.3       1 <0>        -0.3326
     19 N1         -1.2354   -0.6310    0.2856 N.am      1 <0>        -0.3869
     20 C14        -1.0726    0.0406    1.4428 C.2       1 <0>         0.3465
     21 O4         -0.8758   -0.5683    2.4764 O.2       1 <0>        -0.3738
     22 C15        -1.1333    1.5165    1.4550 C.ar      1 <0>        -0.1481
     23 C16        -1.3536    2.2186    0.2681 C.ar      1 <0>        -0.0794
     24 C17        -1.4137    3.5956    0.2859 C.ar      1 <0>        -0.1766
     25 C18        -1.2458    4.2840    1.4777 C.ar      1 <0>         0.1244
     26 C19        -1.0221    3.5921    2.6582 C.ar      1 <0>        -0.1782
     27 C20        -0.9650    2.2149    2.6526 C.ar      1 <0>        -0.0395
     28 F1         -1.3000    5.6339    1.4887 F         1 <0>        -0.0995
     29 H3          1.3443   -2.7995   -5.7052 H         1 <0>         0.0907
     30 H4          2.9756   -3.1890   -5.3861 H         1 <0>         0.1065
     31 H5          1.6756   -4.3843   -5.1637 H         1 <0>         0.0985
     32 H6         -0.5368   -3.7934   -4.7802 H         1 <0>         0.1384
     33 H7         -2.7345   -3.9281   -3.7286 H         1 <0>         0.1496
     34 H8          1.0690   -2.0992   -1.1760 H         1 <0>         0.1580
     35 H9         -4.5907   -0.7596   -1.0685 H         1 <0>         0.0916
     36 H10        -3.6869   -0.3539    0.4103 H         1 <0>         0.0932
     37 H11        -2.8131   -0.6755   -1.1067 H         1 <0>         0.0797
     38 H12        -4.8677   -3.9437    0.7262 H         1 <0>         0.1074
     39 H13        -5.1403   -2.3019    1.3576 H         1 <0>         0.0894
     40 H14        -5.7292   -2.7411   -0.2637 H         1 <0>         0.0861
     41 H15        -1.5992   -4.2789    1.7231 H         1 <0>         0.2201
     42 H16        -1.3925   -0.1452   -0.5391 H         1 <0>         0.2350
     43 H17        -1.4804    1.6836   -0.6614 H         1 <0>         0.1323
     44 H18        -1.5873    4.1395   -0.6309 H         1 <0>         0.1498
     45 H19        -0.8920    4.1331    3.5838 H         1 <0>         0.1529
     46 H20        -0.7907    1.6769    3.5727 H         1 <0>         0.1642
@<TRIPOS>BOND
     1    1    2 1
     2    1   29 1
     3    1   30 1
     4    1   31 1
     5    2    3 2
     6    2    4 1
     7    4    9 ar
     8    4    5 ar
     9    5    6 ar
    10    5   32 1
    11    6    7 ar
    12    6   33 1
    13    7   15 1
    14    7    8 ar
    15    8    9 ar
    16    8   10 1
    17    9   34 1
    18   10   11 1
    19   10   12 1
    20   10   19 1
    21   12   13 1
    22   12   14 1
    23   12   18 1
    24   14   15 1
    25   14   16 1
    26   14   17 1
    27   16   35 1
    28   16   36 1
    29   16   37 1
    30   17   38 1
    31   17   39 1
    32   17   40 1
    33   18   41 1
    34   19   20 am
    35   19   42 1
    36   20   21 2
    37   20   22 1
    38   22   27 ar
    39   22   23 ar
    40   23   24 ar
    41   23   43 1
    42   24   25 ar
    43   24   44 1
    44   25   26 ar
    45   25   28 1
    46   26   27 ar
    47   26   45 1
    48   27   46 1
@<TRIPOS>MOLECULE
ZINC00602554
   45    48     0     0     0
SMALL
USER_CHARGES

@<TRIPOS>ATOM
      1 C1         -5.0738    0.2319   -1.1980 C.3       1 <0>        -0.2332
      2 C2         -4.9469    1.1013    0.0545 C.3       1 <0>         0.0354
      3 C3         -5.0505    0.2192    1.3003 C.3       1 <0>        -0.2335
      4 N1         -3.6507    1.7839    0.0459 N.am      1 <0>        -0.2963
      5 C4         -2.5164    1.0509    0.0312 C.2       1 <0>         0.3578
      6 O1         -2.5594   -0.1643    0.0250 O.2       1 <0>        -0.3354
      7 C5         -1.2250    1.7615    0.0174 C.ar      1 <0>        -0.1720
      8 C6         -0.0126    1.0758    0.0080 C.ar      1 <0>        -0.0618
      9 C7          1.1728    1.7894    0.0005 C.ar      1 <0>         0.0291
     10 C8          1.1546    3.1800    0.0076 C.ar      1 <0>        -0.0879
     11 C9         -0.0425    3.8667    0.0227 C.ar      1 <0>        -0.1665
     12 C10        -1.2393    3.1668    0.0304 C.ar      1 <0>         0.0843
     13 N2         -2.4640    3.8222    0.0456 N.am      1 <0>        -0.2825
     14 C11        -3.6134    3.1256    0.0523 C.2       1 <0>         0.4011
     15 O2         -4.6643    3.7368    0.0652 O.2       1 <0>        -0.3615
     16 C12        -2.5031    5.2867    0.0538 C.3       1 <0>         0.1403
     17 N3         -2.5293    5.7823   -1.3246 N.am      1 <0>        -0.3393
     18 C13        -1.4343    6.0749   -2.0492 C.2       1 <0>         0.3641
     19 O3         -0.2851    5.9712   -1.6704 O.2       1 <0>        -0.3142
     20 C14        -1.8639    6.5409   -3.3846 C.ar      1 <0>        -0.1369
     21 C15        -1.1966    6.9673   -4.5216 C.ar      1 <0>        -0.0581
     22 C16        -1.9203    7.3526   -5.6393 C.ar      1 <0>        -0.1152
     23 C17        -3.3020    7.3151   -5.6265 C.ar      1 <0>        -0.1105
     24 C18        -3.9831    6.8913   -4.4960 C.ar      1 <0>        -0.0599
     25 C19        -3.2728    6.5027   -3.3715 C.ar      1 <0>        -0.1283
     26 C20        -3.6516    6.0101   -2.0304 C.2       1 <0>         0.3489
     27 O4         -4.7862    5.8392   -1.6324 O.2       1 <0>        -0.2548
     28 O5          2.3608    1.1281   -0.0135 O.3       1 <0>        -0.2852
     29 H1         -6.0382   -0.2760   -1.1916 H         1 <0>         0.0855
     30 H2         -5.0000    0.8603   -2.0856 H         1 <0>         0.0788
     31 H3         -4.2735   -0.5081   -1.2092 H         1 <0>         0.1077
     32 H4         -5.7471    1.8413    0.0657 H         1 <0>         0.1371
     33 H5         -4.9601    0.8387    2.1926 H         1 <0>         0.0786
     34 H6         -6.0149   -0.2886    1.3067 H         1 <0>         0.0854
     35 H7         -4.2503   -0.5208    1.2891 H         1 <0>         0.1085
     36 H8          0.0021   -0.0041    0.0020 H         1 <0>         0.1676
     37 H9          2.0856    3.7274    0.0017 H         1 <0>         0.1502
     38 H10        -0.0470    4.9467    0.0289 H         1 <0>         0.1695
     39 H11        -3.3975    5.6233    0.5780 H         1 <0>         0.1569
     40 H12        -1.6183    5.6710    0.5613 H         1 <0>         0.1301
     41 H13        -0.1172    6.9992   -4.5370 H         1 <0>         0.1500
     42 H14        -1.4011    7.6847   -6.5261 H         1 <0>         0.1428
     43 H15        -3.8548    7.6185   -6.5033 H         1 <0>         0.1432
     44 H16        -5.0627    6.8644   -4.4916 H         1 <0>         0.1532
     45 H17         2.6964    0.9409   -0.9009 H         1 <0>         0.2272
@<TRIPOS>BOND
     1    1    2 1
     2    1   29 1
     3    1   30 1
     4    1   31 1
     5    2    3 1
     6    2    4 1
     7    2   32 1
     8    3   33 1
     9    3   34 1
    10    3   35 1
    11    4   14 am
    12    4    5 am
    13    5    6 2
    14    5    7 1
    15    7   12 ar
    16    7    8 ar
    17    8    9 ar
    18    8   36 1
    19    9   10 ar
    20    9   28 1
    21   10   11 ar
    22   10   37 1
    23   11   12 ar
    24   11   38 1
    25   12   13 1
    26   13   14 am
    27   13   16 1
    28   14   15 2
    29   16   17 1
    30   16   39 1
    31   16   40 1
    32   17   26 am
    33   17   18 am
    34   18   19 2
    35   18   20 1
    36   20   25 ar
    37   20   21 ar
    38   21   22 ar
    39   21   41 1
    40   22   23 ar
    41   22   42 1
    42   23   24 ar
    43   23   43 1
    44   24   25 ar
    45   24   44 1
    46   25   26 1
    47   26   27 2
    48   28   45 1
@<TRIPOS>MOLECULE
ZINC00602630
   48    50     0     0     0
SMALL
USER_CHARGES

@<TRIPOS>ATOM
      1 C1          0.3442    5.3208   -1.2233 C.3       1 <0>        -0.1945
      2 C2          1.3140    4.1753   -0.9264 C.3       1 <0>         0.0416
      3 C3          2.3750    4.6503    0.0683 C.3       1 <0>        -0.1999
      4 C4          1.9830    3.7395   -2.2045 C.2       1 <0>        -0.1640
      5 C5          1.6891    4.3350   -3.3337 C.2       1 <0>        -0.2155
      6 C6          0.5552    3.0151   -0.3356 C.2       1 <0>        -0.0361
      7 C7          1.0917    1.8064    0.0588 C.2       1 <0>        -0.1346
      8 N1          0.0355    1.0552    0.5359 N.pl3     1 <0>        -0.1913
      9 H1          0.0851    0.1264    0.9032 H         1 <0>         0.2577
     10 C8         -1.0751    1.8100    0.4132 C.2       1 <0>        -0.0713
     11 N2         -0.7572    2.9705   -0.0986 N.2       1 <0>        -0.1672
     12 C9          2.4943    1.4029   -0.0134 C.2       1 <0>        -0.0475
     13 C10         2.8289    0.0896    0.0794 C.2       1 <0>        -0.0751
     14 C11         4.2341   -0.3249    0.1701 C.2       1 <0>         0.3555
     15 O1          5.1227    0.4556   -0.1185 O.2       1 <0>        -0.3532
     16 N3          4.5316   -1.5709    0.5800 N.am      1 <0>        -0.3789
     17 C12         3.5108   -2.5307    0.9739 C.3       1 <0>         0.0241
     18 H2          3.7725   -3.5081    0.5684 H         1 <0>         0.1377
     19 C13         2.1478   -2.1516    0.4828 C.2       1 <0>         0.2994
     20 O2          1.2861   -3.0045    0.4430 O.2       1 <0>        -0.3505
     21 N4          1.8401   -0.9068    0.0851 N.am      1 <0>        -0.3200
     22 C14         3.4793   -2.6213    2.5009 C.3       1 <0>        -0.1356
     23 C15         4.8098   -3.1209    3.0020 C.ar      1 <0>        -0.0918
     24 C16         5.0231   -4.4772    3.1622 C.ar      1 <0>        -0.1220
     25 C17         6.2452   -4.9358    3.6173 C.ar      1 <0>        -0.1249
     26 C18         7.2505   -4.0373    3.9221 C.ar      1 <0>        -0.1236
     27 C19         7.0355   -2.6806    3.7669 C.ar      1 <0>        -0.1245
     28 C20         5.8152   -2.2224    3.3069 C.ar      1 <0>        -0.1234
     29 H3         -0.1397    5.6361   -0.2989 H         1 <0>         0.0874
     30 H4          0.8930    6.1601   -1.6506 H         1 <0>         0.0717
     31 H5         -0.4117    4.9825   -1.9320 H         1 <0>         0.0901
     32 H6          3.0660    3.8343    0.2799 H         1 <0>         0.0746
     33 H7          2.9239    5.4895   -0.3590 H         1 <0>         0.0834
     34 H8          1.8912    4.9656    0.9928 H         1 <0>         0.0833
     35 H9          2.7047    2.9362   -2.1895 H         1 <0>         0.1261
     36 H10         2.1685    4.0226   -4.2497 H         1 <0>         0.1122
     37 H11         0.9673    5.1382   -3.3487 H         1 <0>         0.1217
     38 H12        -2.0716    1.5047    0.6962 H         1 <0>         0.2053
     39 H13         3.2649    2.1488   -0.1404 H         1 <0>         0.1890
     40 H14         5.4626   -1.8416    0.6099 H         1 <0>         0.2508
     41 H15         0.9364   -0.6964   -0.1979 H         1 <0>         0.2482
     42 H16         3.2806   -1.6346    2.9193 H         1 <0>         0.1009
     43 H17         2.6931   -3.3112    2.8078 H         1 <0>         0.1139
     44 H18         4.2361   -5.1789    2.9282 H         1 <0>         0.1336
     45 H19         6.4130   -5.9957    3.7389 H         1 <0>         0.1331
     46 H20         8.2038   -4.3953    4.2819 H         1 <0>         0.1324
     47 H21         7.8208   -1.9786    4.0054 H         1 <0>         0.1345
     48 H22         5.6471   -1.1624    3.1859 H         1 <0>         0.1367
@<TRIPOS>BOND
     1    1    2 1
     2    1   29 1
     3    1   30 1
     4    1   31 1
     5    2    3 1
     6    2    4 1
     7    2    6 1
     8    3   32 1
     9    3   33 1
    10    3   34 1
    11    4    5 2
    12    4   35 1
    13    5   36 1
    14    5   37 1
    15    6   11 1
    16    6    7 2
    17    7    8 1
    18    7   12 1
    19    8    9 1
    20    8   10 1
    21   10   11 2
    22   10   38 1
    23   12   13 2
    24   12   39 1
    25   13   21 1
    26   13   14 1
    27   14   15 2
    28   14   16 am
    29   16   17 1
    30   16   40 1
    31   17   18 1
    32   17   19 1
    33   17   22 1
    34   19   20 2
    35   19   21 am
    36   21   41 1
    37   22   23 1
    38   22   42 1
    39   22   43 1
    40   23   28 ar
    41   23   24 ar
    42   24   25 ar
    43   24   44 1
    44   25   26 ar
    45   25   45 1
    46   26   27 ar
    47   26   46 1
    48   27   28 ar
    49   27   47 1
    50   28   48 1
@<TRIPOS>MOLECULE
ZINC00605940
   45    47     0     0     0
SMALL
USER_CHARGES

@<TRIPOS>ATOM
      1 C1          4.8589    1.2704   -0.1956 C.3       1 <0>        -0.0784
      2 N1          3.6226    2.0334   -0.0070 N.am      1 <0>        -0.2461
      3 C2          3.6974    3.4012    0.1744 C.ar      1 <0>         0.1169
      4 C3          4.9358    4.0383    0.1770 C.ar      1 <0>        -0.1726
      5 C4          5.0123    5.4006    0.3576 C.ar      1 <0>        -0.0858
      6 C5          3.8557    6.1586    0.5391 C.ar      1 <0>        -0.2339
      7 C6          2.6164    5.5459    0.5389 C.ar      1 <0>        -0.0337
      8 C7          2.5285    4.1610    0.3569 C.ar      1 <0>        -0.1099
      9 C8          1.2229    3.4929    0.3491 C.2       1 <0>         0.2072
     10 C9          1.1885    2.1084    0.1681 C.2       1 <0>        -0.3398
     11 C10         2.4459    1.3848   -0.0155 C.2       1 <0>         0.3697
     12 O1          2.4263    0.1777   -0.1787 O.2       1 <0>        -0.3501
     13 C11        -0.0920    1.3907    0.1562 C.2       1 <0>         0.3696
     14 O2         -0.5307    0.9461   -0.8882 O.2       1 <0>        -0.3304
     15 N2         -0.7791    1.2193    1.3030 N.am      1 <0>        -0.2764
     16 C12        -0.2024    1.6604    2.5754 C.3       1 <0>        -0.0737
     17 C13        -2.0448    0.6192    1.2782 C.ar      1 <0>         0.0017
     18 C14        -2.5256    0.0612    0.1010 C.ar      1 <0>        -0.1180
     19 C15        -3.7710   -0.5344    0.0777 C.ar      1 <0>        -0.1885
     20 C16        -4.5472   -0.5662    1.2289 C.ar      1 <0>         0.1015
     21 C17        -4.0683   -0.0033    2.4049 C.ar      1 <0>        -0.1914
     22 C18        -2.8208    0.5876    2.4293 C.ar      1 <0>        -0.1266
     23 N3         -5.8112   -1.1654    1.2042 N.pl3     1 <0>        -0.4247
     24 O3          0.0841    4.1973    0.5167 O.3       1 <0>        -0.2472
     25 S1          3.9742    7.9015    0.7688 S.3       1 <0>         0.1641
     26 C19         5.7559    8.2338    0.6936 C.3       1 <0>        -0.3216
     27 H1          4.6186    0.2150   -0.3234 H         1 <0>         0.1338
     28 H2          5.3791    1.6345   -1.0815 H         1 <0>         0.0836
     29 H3          5.4990    1.3940    0.6780 H         1 <0>         0.0801
     30 H4          5.8384    3.4618    0.0374 H         1 <0>         0.1458
     31 H5          5.9766    5.8870    0.3590 H         1 <0>         0.1387
     32 H6          1.7207    6.1329    0.6791 H         1 <0>         0.1631
     33 H7         -0.4271    2.7158    2.7297 H         1 <0>         0.0673
     34 H8         -0.6290    1.0752    3.3900 H         1 <0>         0.0997
     35 H9          0.8781    1.5185    2.5532 H         1 <0>         0.0966
     36 H10        -1.9239    0.0898   -0.7954 H         1 <0>         0.2088
     37 H11        -4.1431   -0.9724   -0.8368 H         1 <0>         0.1334
     38 H12        -4.6720   -0.0276    3.3001 H         1 <0>         0.1282
     39 H13        -2.4483    1.0249    3.3438 H         1 <0>         0.1263
     40 H14        -6.3531   -1.1878    2.0083 H         1 <0>         0.2161
     41 H15        -6.1456   -1.5585    0.3828 H         1 <0>         0.2188
     42 H16        -0.7117    3.6509    0.5736 H         1 <0>         0.2595
     43 H17         6.2625    7.6801    1.4841 H         1 <0>         0.0969
     44 H18         6.1435    7.9200   -0.2756 H         1 <0>         0.0980
     45 H19         5.9324    9.3011    0.8272 H         1 <0>         0.1236
@<TRIPOS>BOND
     1    1    2 1
     2    1   27 1
     3    1   28 1
     4    1   29 1
     5    2   11 am
     6    2    3 1
     7    3    8 ar
     8    3    4 ar
     9    4    5 ar
    10    4   30 1
    11    5    6 ar
    12    5   31 1
    13    6    7 ar
    14    6   25 1
    15    7    8 ar
    16    7   32 1
    17    8    9 1
    18    9   10 2
    19    9   24 1
    20   10   11 1
    21   10   13 1
    22   11   12 2
    23   13   14 2
    24   13   15 am
    25   15   16 1
    26   15   17 1
    27   16   33 1
    28   16   34 1
    29   16   35 1
    30   17   22 ar
    31   17   18 ar
    32   18   19 ar
    33   18   36 1
    34   19   20 ar
    35   19   37 1
    36   20   21 ar
    37   20   23 1
    38   21   22 ar
    39   21   38 1
    40   22   39 1
    41   23   40 1
    42   23   41 1
    43   24   42 1
    44   25   26 1
    45   26   43 1
    46   26   44 1
    47   26   45 1
@<TRIPOS>MOLECULE
ZINC00609289
   38    39     0     0     0
SMALL
USER_CHARGES

@<TRIPOS>ATOM
      1 C1         -1.0376    9.3661    7.2758 C.3       1 <0>        -0.1922
      2 C2         -2.0248    8.3075    7.7715 C.3       1 <0>        -0.3191
      3 S1         -2.0415    6.9085    6.6169 S.3       1 <0>         0.2826
      4 C3         -3.2099    5.7913    7.3178 C.ar      1 <0>        -0.1412
      5 C4         -3.8612    6.1135    8.5033 C.ar      1 <0>        -0.1623
      6 C5         -4.7756    5.2374    9.0493 C.ar      1 <0>        -0.0792
      7 C6         -5.0534    4.0317    8.4236 C.ar      1 <0>        -0.1524
      8 C7         -4.4226    3.6967    7.2459 C.ar      1 <0>        -0.0826
      9 C8         -3.4890    4.5705    6.6820 C.ar      1 <0>        -0.1376
     10 C9         -2.8062    4.2159    5.4252 C.2       1 <0>         0.3483
     11 O1         -1.9981    4.9814    4.9353 O.2       1 <0>        -0.3310
     12 N1         -3.0773    3.0433    4.8187 N.am      1 <0>        -0.3270
     13 C10        -2.3510    2.6566    3.6878 C.ar      1 <0>         0.1248
     14 C11        -2.9655    1.9178    2.6851 C.ar      1 <0>        -0.1902
     15 C12        -2.2456    1.5380    1.5694 C.ar      1 <0>        -0.0078
     16 C13        -0.9143    1.8924    1.4500 C.ar      1 <0>        -0.7835
     17 C14        -0.2979    2.6231    2.4492 C.ar      1 <0>        -0.0082
     18 C15        -1.0137    3.0110    3.5649 C.ar      1 <0>        -0.1542
     19 S2          0.0006    1.4058    0.0250 S.o2      1 <0>         2.7643
     20 O2         -0.6527    0.2609   -0.5057 O.2       1 <0>        -0.9215
     21 O3          1.3696    1.3935    0.4059 O.2       1 <0>        -0.9188
     22 N2         -0.1670    2.6100   -1.0993 N.pl3     1 <0>        -0.9311
     23 H1         -1.3425    9.7133    6.2886 H         1 <0>         0.0869
     24 H2         -1.0275   10.2067    7.9696 H         1 <0>         0.0830
     25 H3         -0.0394    8.9323    7.2161 H         1 <0>         0.0870
     26 H4         -3.0230    8.7412    7.8312 H         1 <0>         0.0982
     27 H5         -1.7199    7.9603    8.7587 H         1 <0>         0.0983
     28 H6         -3.6510    7.0510    8.9967 H         1 <0>         0.1411
     29 H7         -5.2788    5.4923    9.9703 H         1 <0>         0.1351
     30 H8         -5.7716    3.3533    8.8600 H         1 <0>         0.1357
     31 H9         -4.6462    2.7580    6.7610 H         1 <0>         0.1255
     32 H10        -3.7761    2.4675    5.1665 H         1 <0>         0.2383
     33 H11        -4.0053    1.6410    2.7775 H         1 <0>         0.1367
     34 H12        -2.7229    0.9638    0.7891 H         1 <0>         0.1539
     35 H13         0.7432    2.8946    2.3550 H         1 <0>         0.1574
     36 H14        -0.5330    3.5858    4.3427 H         1 <0>         0.1694
     37 H15        -0.6991    3.3946   -0.8939 H         1 <0>         0.2310
     38 H16         0.2668    2.5308   -1.9633 H         1 <0>         0.2426
@<TRIPOS>BOND
     1    1    2 1
     2    1   23 1
     3    1   24 1
     4    1   25 1
     5    2    3 1
     6    2   26 1
     7    2   27 1
     8    3    4 1
     9    4    9 ar
    10    4    5 ar
    11    5    6 ar
    12    5   28 1
    13    6    7 ar
    14    6   29 1
    15    7    8 ar
    16    7   30 1
    17    8    9 ar
    18    8   31 1
    19    9   10 1
    20   10   11 2
    21   10   12 am
    22   12   13 1
    23   12   32 1
    24   13   18 ar
    25   13   14 ar
    26   14   15 ar
    27   14   33 1
    28   15   16 ar
    29   15   34 1
    30   16   17 ar
    31   16   19 1
    32   17   18 ar
    33   17   35 1
    34   18   36 1
    35   19   20 2
    36   19   21 2
    37   19   22 1
    38   22   37 1
    39   22   38 1
@<TRIPOS>MOLECULE
ZINC00610103
   46    47     0     0     0
SMALL
USER_CHARGES

@<TRIPOS>ATOM
      1 C1          2.4328   -6.3559    0.1417 C.3       1 <0>        -0.2028
      2 C2          2.4257   -4.8516    0.4209 C.3       1 <0>        -0.1253
      3 C3          3.3027   -4.5548    1.6390 C.3       1 <0>        -0.2127
      4 C4          2.9740   -4.1044   -0.7965 C.3       1 <0>         0.0225
      5 H1          2.4264   -4.4106   -1.6878 H         1 <0>         0.1269
      6 C5          2.8096   -2.6205   -0.5911 C.2       1 <0>         0.2994
      7 O1          3.6849   -1.9833   -0.0441 O.2       1 <0>        -0.3624
      8 N1          1.6900   -2.0015   -1.0151 N.am      1 <0>        -0.3121
      9 C6          1.5939   -0.6055   -0.9496 C.ar      1 <0>         0.0371
     10 C7          0.7413    0.0729   -1.8105 C.ar      1 <0>        -0.1446
     11 C8          0.6469    1.4486   -1.7462 C.ar      1 <0>        -0.1123
     12 C9          1.4046    2.1541   -0.8206 C.ar      1 <0>         0.0467
     13 C10         2.2573    1.4756    0.0402 C.ar      1 <0>        -0.1480
     14 C11         2.3517    0.0999   -0.0240 C.ar      1 <0>        -0.1234
     15 N2          1.3092    3.5501   -0.7557 N.am      1 <0>        -0.3263
     16 C12         0.1612    4.1640   -1.1044 C.2       1 <0>         0.3000
     17 O2         -0.8322    3.5071   -1.3344 O.2       1 <0>        -0.3564
     18 C13         0.1117    5.6666   -1.2084 C.3       1 <0>        -0.2370
     19 N3          4.3948   -4.4197   -0.9639 N.am      1 <0>        -0.3636
     20 C14         4.7646   -5.5264   -1.6384 C.2       1 <0>         0.3941
     21 O3          3.9181   -6.2637   -2.1085 O.2       1 <0>        -0.3635
     22 C15         6.1869   -5.8421   -1.8060 C.2       1 <0>        -0.1214
     23 C16         6.6964   -6.9251   -2.4633 C.2       1 <0>        -0.1256
     24 C17         8.0941   -6.8280   -2.3782 C.2       1 <0>        -0.2347
     25 C18         8.3730   -5.7043   -1.6814 C.2       1 <0>        -0.0716
     26 O4          7.2213   -5.1103   -1.3427 O.3       1 <0>        -0.0515
     27 H2          3.4621   -6.7097    0.0829 H         1 <0>         0.0874
     28 H3          1.9148   -6.8772    0.9467 H         1 <0>         0.0717
     29 H4          1.9265   -6.5524   -0.8034 H         1 <0>         0.0911
     30 H5          1.4053   -4.5237    0.6192 H         1 <0>         0.0926
     31 H6          3.2976   -3.4831    1.8379 H         1 <0>         0.0861
     32 H7          2.9121   -5.0871    2.5062 H         1 <0>         0.0779
     33 H8          4.3231   -4.8827    1.4406 H         1 <0>         0.0825
     34 H9          0.9508   -2.5226   -1.3656 H         1 <0>         0.2364
     35 H10         0.1517   -0.4758   -2.5300 H         1 <0>         0.1331
     36 H11        -0.0129    1.9766   -2.4187 H         1 <0>         0.1650
     37 H12         2.8464    2.0243    0.7603 H         1 <0>         0.1328
     38 H13         3.0146   -0.4277    0.6457 H         1 <0>         0.1827
     39 H14         2.0694    4.0749   -0.4598 H         1 <0>         0.2322
     40 H15         1.0910    6.0799   -0.9674 H         1 <0>         0.0783
     41 H16        -0.1631    5.9517   -2.2239 H         1 <0>         0.1140
     42 H17        -0.6287    6.0550   -0.5090 H         1 <0>         0.1137
     43 H18         5.0695   -3.8320   -0.5892 H         1 <0>         0.2526
     44 H19         6.1331   -7.7055   -2.9532 H         1 <0>         0.1752
     45 H20         8.8117   -7.5211   -2.7917 H         1 <0>         0.1616
     46 H21         9.3617   -5.3424   -1.4411 H         1 <0>         0.2015
@<TRIPOS>BOND
     1    1    2 1
     2    1   27 1
     3    1   28 1
     4    1   29 1
     5    2    3 1
     6    2    4 1
     7    2   30 1
     8    3   31 1
     9    3   32 1
    10    3   33 1
    11    4    5 1
    12    4    6 1
    13    4   19 1
    14    6    7 2
    15    6    8 am
    16    8    9 1
    17    8   34 1
    18    9   14 ar
    19    9   10 ar
    20   10   11 ar
    21   10   35 1
    22   11   12 ar
    23   11   36 1
    24   12   13 ar
    25   12   15 1
    26   13   14 ar
    27   13   37 1
    28   14   38 1
    29   15   16 am
    30   15   39 1
    31   16   17 2
    32   16   18 1
    33   18   40 1
    34   18   41 1
    35   18   42 1
    36   19   20 am
    37   19   43 1
    38   20   21 2
    39   20   22 1
    40   22   26 1
    41   22   23 2
    42   23   24 1
    43   23   44 1
    44   24   25 2
    45   24   45 1
    46   25   26 1
    47   25   46 1
@<TRIPOS>MOLECULE
ZINC00612070
   40    41     0     0     0
SMALL
USER_CHARGES

@<TRIPOS>ATOM
      1 C1        -13.3211    6.1106    0.0112 C.3       1 <0>        -0.2416
      2 C2        -12.0089    5.3775   -0.0969 C.2       1 <0>         0.3090
      3 O1        -10.9810    5.9968   -0.2736 O.2       1 <0>        -0.3565
      4 N1        -11.9774    4.0338    0.0027 N.am      1 <0>        -0.2799
      5 C3        -13.2275    3.2780    0.1132 C.3       1 <0>        -0.0741
      6 C4        -10.7493    3.3598    0.0005 C.ar      1 <0>         0.0774
      7 C5        -10.7146    1.9804   -0.1553 C.ar      1 <0>        -0.1708
      8 C6         -9.5043    1.3162   -0.1579 C.ar      1 <0>        -0.0668
      9 C7         -8.3215    2.0277   -0.0048 C.ar      1 <0>         0.0015
     10 C8         -8.3566    3.4067    0.1563 C.ar      1 <0>        -0.1145
     11 C9         -9.5666    4.0713    0.1536 C.ar      1 <0>        -0.1550
     12 N2         -7.0938    1.3540   -0.0070 N.pl3     1 <0>        -0.2472
     13 C10        -6.8982    0.3123   -0.8396 C.2       1 <0>         0.1781
     14 S1         -8.0950   -0.0981   -1.9929 S.2       1 <0>        -0.3775
     15 N3         -5.7605   -0.4062   -0.7642 N.pl3     1 <0>        -0.2683
     16 C11        -5.5278   -1.4448   -1.6718 C.ar      1 <0>         0.0350
     17 C12        -6.5519   -2.3234   -2.0017 C.ar      1 <0>        -0.0453
     18 C13        -6.3187   -3.3479   -2.8978 C.ar      1 <0>        -0.1339
     19 C14        -5.0687   -3.4964   -3.4708 C.ar      1 <0>        -0.0643
     20 C15        -4.0457   -2.6270   -3.1402 C.ar      1 <0>        -0.1121
     21 C16        -4.2723   -1.6001   -2.2446 C.ar      1 <0>        -0.0865
     22 N4         -2.7078   -2.7932   -3.7513 N.pl3     1 <0>         0.5518
     23 O2         -1.8075   -2.0248   -3.4643 O.2       1 <0>        -0.3606
     24 O3         -2.5059   -3.7016   -4.5373 O.3       1 <0>        -0.3537
     25 H1        -14.1119    5.4045    0.2649 H         1 <0>         0.0856
     26 H2        -13.2496    6.8708    0.7891 H         1 <0>         0.1149
     27 H3        -13.5510    6.5866   -0.9420 H         1 <0>         0.1144
     28 H4        -13.5292    3.2258    1.1593 H         1 <0>         0.0784
     29 H5        -14.0057    3.7763   -0.4649 H         1 <0>         0.0894
     30 H6        -13.0778    2.2696   -0.2725 H         1 <0>         0.1001
     31 H7        -11.6344    1.4271   -0.2748 H         1 <0>         0.1377
     32 H8         -9.4774    0.2434   -0.2794 H         1 <0>         0.1693
     33 H9         -7.4371    3.9595    0.2794 H         1 <0>         0.1332
     34 H10        -9.5936    5.1441    0.2747 H         1 <0>         0.1996
     35 H11        -6.3842    1.6370    0.5907 H         1 <0>         0.2298
     36 H12        -5.1030   -0.2032   -0.0805 H         1 <0>         0.2339
     37 H13        -7.5295   -2.2051   -1.5582 H         1 <0>         0.1861
     38 H14        -7.1146   -4.0311   -3.1550 H         1 <0>         0.1544
     39 H15        -4.8903   -4.2956   -4.1749 H         1 <0>         0.1656
     40 H16        -3.4739   -0.9189   -1.9899 H         1 <0>         0.1633
@<TRIPOS>BOND
     1    1    2 1
     2    1   25 1
     3    1   26 1
     4    1   27 1
     5    2    3 2
     6    2    4 am
     7    4    5 1
     8    4    6 1
     9    5   28 1
    10    5   29 1
    11    5   30 1
    12    6   11 ar
    13    6    7 ar
    14    7    8 ar
    15    7   31 1
    16    8    9 ar
    17    8   32 1
    18    9   10 ar
    19    9   12 1
    20   10   11 ar
    21   10   33 1
    22   11   34 1
    23   12   13 1
    24   12   35 1
    25   13   14 2
    26   13   15 1
    27   15   16 1
    28   15   36 1
    29   16   21 ar
    30   16   17 ar
    31   17   18 ar
    32   17   37 1
    33   18   19 ar
    34   18   38 1
    35   19   20 ar
    36   19   39 1
    37   20   21 ar
    38   20   22 1
    39   21   40 1
    40   22   23 2
    41   22   24 1
@<TRIPOS>MOLECULE
ZINC00612172
   38    39     0     0     0
SMALL
USER_CHARGES

@<TRIPOS>ATOM
      1 C1         -3.5836    3.9637   -7.7221 C.3       1 <0>        -0.2385
      2 C2         -3.3371    3.3690   -6.3595 C.2       1 <0>         0.3018
      3 O1         -4.1036    2.5431   -5.9106 O.2       1 <0>        -0.3462
      4 N1         -2.2649    3.7548   -5.6398 N.am      1 <0>        -0.3335
      5 C3         -2.0889    3.2777   -4.3362 C.ar      1 <0>         0.1172
      6 C4         -2.4718    1.9829   -4.0114 C.ar      1 <0>        -0.1519
      7 C5         -2.2962    1.5149   -2.7239 C.ar      1 <0>        -0.0050
      8 C6         -1.7395    2.3339   -1.7588 C.ar      1 <0>        -0.7767
      9 C7         -1.3620    3.6254   -2.0777 C.ar      1 <0>        -0.0074
     10 C8         -1.5304    4.0979   -3.3646 C.ar      1 <0>        -0.1869
     11 S1         -1.5173    1.7330   -0.1174 S.o2      1 <0>         2.7654
     12 O2         -2.4562    0.6813    0.0606 O.2       1 <0>        -0.9079
     13 O3         -1.4799    2.8725    0.7307 O.2       1 <0>        -0.9179
     14 N2         -0.0139    1.0420   -0.0483 N.pl3     1 <0>        -0.8051
     15 C9          1.1237    1.8127   -0.3170 C.ar      1 <0>         0.0850
     16 C10         1.1699    3.1429    0.0709 C.ar      1 <0>        -0.1705
     17 C11         2.2966    3.9008   -0.1907 C.ar      1 <0>        -0.1104
     18 C12         3.3755    3.3391   -0.8483 C.ar      1 <0>        -0.1310
     19 C13         3.3362    2.0151   -1.2439 C.ar      1 <0>        -0.1295
     20 C14         2.2121    1.2458   -0.9809 C.ar      1 <0>        -0.2132
     21 S2          2.1587   -0.4419   -1.4844 S.3       1 <0>         0.1504
     22 C15         3.7633   -0.7116   -2.2864 C.3       1 <0>        -0.3166
     23 H1         -3.0858    3.3571   -8.4787 H         1 <0>         0.1077
     24 H2         -4.6551    3.9851   -7.9207 H         1 <0>         0.1217
     25 H3         -3.1881    4.9789   -7.7523 H         1 <0>         0.0855
     26 H4         -1.6153    4.3631   -6.0255 H         1 <0>         0.2352
     27 H5         -2.9060    1.3425   -4.7649 H         1 <0>         0.1716
     28 H6         -2.5938    0.5080   -2.4707 H         1 <0>         0.1551
     29 H7         -0.9316    4.2641   -1.3206 H         1 <0>         0.1502
     30 H8         -1.2316    5.1053   -3.6140 H         1 <0>         0.1350
     31 H9          0.0783    0.1025    0.1744 H         1 <0>         0.2607
     32 H10         0.3275    3.5861    0.5811 H         1 <0>         0.1855
     33 H11         2.3322    4.9359    0.1156 H         1 <0>         0.1367
     34 H12         4.2513    3.9367   -1.0537 H         1 <0>         0.1319
     35 H13         4.1803    1.5797   -1.7580 H         1 <0>         0.1334
     36 H14         3.8646   -0.0333   -3.1336 H         1 <0>         0.0981
     37 H15         4.5635   -0.5215   -1.5711 H         1 <0>         0.0989
     38 H16         3.8259   -1.7420   -2.6364 H         1 <0>         0.1215
@<TRIPOS>BOND
     1    1    2 1
     2    1   23 1
     3    1   24 1
     4    1   25 1
     5    2    3 2
     6    2    4 am
     7    4    5 1
     8    4   26 1
     9    5   10 ar
    10    5    6 ar
    11    6    7 ar
    12    6   27 1
    13    7    8 ar
    14    7   28 1
    15    8    9 ar
    16    8   11 1
    17    9   10 ar
    18    9   29 1
    19   10   30 1
    20   11   12 2
    21   11   13 2
    22   11   14 1
    23   14   15 1
    24   14   31 1
    25   15   20 ar
    26   15   16 ar
    27   16   17 ar
    28   16   32 1
    29   17   18 ar
    30   17   33 1
    31   18   19 ar
    32   18   34 1
    33   19   20 ar
    34   19   35 1
    35   20   21 1
    36   21   22 1
    37   22   36 1
    38   22   37 1
    39   22   38 1
@<TRIPOS>MOLECULE
ZINC00612374
   39    40     0     0     0
SMALL
USER_CHARGES

@<TRIPOS>ATOM
      1 C1         -6.7925    6.5732    0.4821 C.3       1 <0>        -0.0498
      2 O1         -6.6330    5.1301    0.4652 O.3       1 <0>        -0.2693
      3 C2         -5.3750    4.6547    0.3877 C.2       1 <0>         0.3505
      4 O2         -4.4369    5.4245    0.3356 O.2       1 <0>        -0.3475
      5 C3         -5.1362    3.1966    0.3661 C.ar      1 <0>        -0.1300
      6 C4         -6.2120    2.3125    0.4258 C.ar      1 <0>        -0.0250
      7 C5         -5.9821    0.9381    0.4051 C.ar      1 <0>        -0.1335
      8 C6         -4.6757    0.4515    0.3246 C.ar      1 <0>        -0.0544
      9 C7         -3.6074    1.3343    0.2653 C.ar      1 <0>         0.0102
     10 C8         -3.8322    2.7029    0.2914 C.ar      1 <0>        -0.0009
     11 N1         -2.2995    0.8431    0.1847 N.pl3     1 <0>        -0.2724
     12 C9         -1.4239    1.3961   -0.6779 C.2       1 <0>         0.1437
     13 S1         -1.8799    2.7634   -1.6017 S.2       1 <0>        -0.2382
     14 N2         -0.1893    0.8726   -0.8132 N.pl3     1 <0>        -0.2449
     15 C10         0.7539    1.5112   -1.6154 C.ar      1 <0>         0.1185
     16 C11         2.0611    1.0379   -1.6517 C.ar      1 <0>        -0.2206
     17 C12         2.9876    1.6814   -2.4526 C.ar      1 <0>        -0.0712
     18 C13         2.5735    2.7807   -3.1928 C.ar      1 <0>        -0.2119
     19 C14         1.2596    3.1962   -3.1087 C.ar      1 <0>        -0.0236
     20 N3          0.3965    2.5595   -2.3402 N.ar      1 <0>        -0.1056
     21 C15        -7.1194   -0.0031    0.4678 C.2       1 <0>         0.3545
     22 O3         -6.9183   -1.2009    0.4493 O.2       1 <0>        -0.3655
     23 O4         -8.3793    0.4672    0.5454 O.3       1 <0>        -0.2640
     24 C16        -9.4471   -0.5150    0.6037 C.3       1 <0>        -0.0502
     25 H1         -7.8520    6.8209    0.5466 H         1 <0>         0.1024
     26 H2         -6.2695    6.9865    1.3445 H         1 <0>         0.0818
     27 H3         -6.3756    6.9955   -0.4323 H         1 <0>         0.0853
     28 H4         -7.2213    2.6916    0.4884 H         1 <0>         0.1671
     29 H5         -4.4969   -0.6135    0.3082 H         1 <0>         0.1563
     30 H6         -2.9978    3.3874    0.2499 H         1 <0>         0.2007
     31 H7         -2.0231    0.1046    0.7497 H         1 <0>         0.2284
     32 H8          0.0412    0.0492   -0.3552 H         1 <0>         0.2292
     33 H9          2.3489    0.1795   -1.0630 H         1 <0>         0.1310
     34 H10         4.0100    1.3366   -2.5007 H         1 <0>         0.1393
     35 H11         3.2719    3.3051   -3.8281 H         1 <0>         0.1384
     36 H12         0.9329    4.0506   -3.6829 H         1 <0>         0.1703
     37 H13       -10.4080   -0.0039    0.6637 H         1 <0>         0.1049
     38 H14        -9.4204   -1.1344   -0.2929 H         1 <0>         0.0839
     39 H15        -9.3146   -1.1440    1.4839 H         1 <0>         0.0822
@<TRIPOS>BOND
     1    1    2 1
     2    1   25 1
     3    1   26 1
     4    1   27 1
     5    2    3 1
     6    3    4 2
     7    3    5 1
     8    5   10 ar
     9    5    6 ar
    10    6    7 ar
    11    6   28 1
    12    7    8 ar
    13    7   21 1
    14    8    9 ar
    15    8   29 1
    16    9   10 ar
    17    9   11 1
    18   10   30 1
    19   11   12 1
    20   11   31 1
    21   12   13 2
    22   12   14 1
    23   14   15 1
    24   14   32 1
    25   15   20 ar
    26   15   16 ar
    27   16   17 ar
    28   16   33 1
    29   17   18 ar
    30   17   34 1
    31   18   19 ar
    32   18   35 1
    33   19   20 ar
    34   19   36 1
    35   21   22 2
    36   21   23 1
    37   23   24 1
    38   24   37 1
    39   24   38 1
    40   24   39 1
@<TRIPOS>MOLECULE
ZINC00612499
   41    43     0     0     0
SMALL
USER_CHARGES

@<TRIPOS>ATOM
      1 C1         -5.3473    6.4321    7.7594 C.3       1 <0>        -0.2120
      2 C2         -5.3543    5.9495    6.3075 C.3       1 <0>        -0.0188
      3 O1         -4.1173    6.2990    5.6834 O.3       1 <0>        -0.2066
      4 C3         -3.9597    5.9401    4.3822 C.ar      1 <0>         0.1566
      5 C4         -2.7834    6.2477    3.7141 C.ar      1 <0>        -0.1831
      6 C5         -2.6259    5.8821    2.3912 C.ar      1 <0>         0.0199
      7 C6         -3.6391    5.2098    1.7332 C.ar      1 <0>        -0.8031
      8 C7         -4.8147    4.9071    2.3951 C.ar      1 <0>         0.0105
      9 C8         -4.9751    5.2658    3.7195 C.ar      1 <0>        -0.2467
     10 S1         -3.4349    4.7445    0.0461 S.o2      1 <0>         2.7754
     11 O2         -2.4674    5.6277   -0.5046 O.2       1 <0>        -0.8718
     12 O3         -4.7403    4.6090   -0.4988 O.2       1 <0>        -0.9020
     13 N1         -2.7576    3.2334    0.0335 N.pl3     1 <0>        -0.6164
     14 C9         -3.4323    2.0663    0.0301 C.2       1 <0>        -0.0317
     15 C10        -2.5153    1.0565    0.0197 C.2       1 <0>        -0.1967
     16 C11        -1.2312    1.6484    0.0168 C.2       1 <0>         0.1199
     17 N2         -1.3866    2.9499    0.0304 N.2       1 <0>        -0.1159
     18 N3         -0.0111    0.9658    0.0074 N.pl3     1 <0>        -0.3934
     19 C12        -2.8113   -0.3977    0.0135 C.ar      1 <0>        -0.0065
     20 C13        -3.7009   -0.9341    0.9421 C.ar      1 <0>        -0.1203
     21 C14        -3.9770   -2.2863    0.9281 C.ar      1 <0>        -0.1247
     22 C15        -3.3637   -3.1104    0.0018 C.ar      1 <0>        -0.1289
     23 C16        -2.4754   -2.5841   -0.9186 C.ar      1 <0>        -0.1252
     24 C17        -2.1964   -1.2324   -0.9173 C.ar      1 <0>        -0.1275
     25 H1         -4.5239    5.9599    8.2952 H         1 <0>         0.0902
     26 H2         -5.2220    7.5147    7.7819 H         1 <0>         0.0909
     27 H3         -6.2909    6.1656    8.2355 H         1 <0>         0.0897
     28 H4         -6.1778    6.4217    5.7717 H         1 <0>         0.0788
     29 H5         -5.4796    4.8670    6.2851 H         1 <0>         0.0771
     30 H6         -1.9914    6.7722    4.2278 H         1 <0>         0.1526
     31 H7         -1.7103    6.1214    1.8707 H         1 <0>         0.1619
     32 H8         -5.6066    4.3861    1.8775 H         1 <0>         0.1465
     33 H9         -5.8916    5.0249    4.2375 H         1 <0>         0.1416
     34 H10        -4.5062    1.9515    0.0350 H         1 <0>         0.1917
     35 H11         0.0021   -0.0041    0.0020 H         1 <0>         0.2367
     36 H12         0.8223    1.4622    0.0021 H         1 <0>         0.2330
     37 H13        -4.1766   -0.2923    1.6689 H         1 <0>         0.1312
     38 H14        -4.6695   -2.7025    1.6448 H         1 <0>         0.1305
     39 H15        -3.5794   -4.1687   -0.0029 H         1 <0>         0.1299
     40 H16        -1.9996   -3.2320   -1.6399 H         1 <0>         0.1310
     41 H17        -1.5029   -0.8225   -1.6367 H         1 <0>         0.1355
@<TRIPOS>BOND
     1    1    2 1
     2    1   25 1
     3    1   26 1
     4    1   27 1
     5    2    3 1
     6    2   28 1
     7    2   29 1
     8    3    4 1
     9    4    9 ar
    10    4    5 ar
    11    5    6 ar
    12    5   30 1
    13    6    7 ar
    14    6   31 1
    15    7    8 ar
    16    7   10 1
    17    8    9 ar
    18    8   32 1
    19    9   33 1
    20   10   11 2
    21   10   12 2
    22   10   13 1
    23   13   17 1
    24   13   14 1
    25   14   15 2
    26   14   34 1
    27   15   16 1
    28   15   19 1
    29   16   17 2
    30   16   18 1
    31   18   35 1
    32   18   36 1
    33   19   24 ar
    34   19   20 ar
    35   20   21 ar
    36   20   37 1
    37   21   22 ar
    38   21   38 1
    39   22   23 ar
    40   22   39 1
    41   23   24 ar
    42   23   40 1
    43   24   41 1
@<TRIPOS>MOLECULE
ZINC00613475
   44    46     0     0     0
SMALL
USER_CHARGES

@<TRIPOS>ATOM
      1 C1         -0.6959    1.1569   -0.4198 C.ar      1 <0>        -0.1259
      2 C2         -1.1106    1.7958    0.7337 C.ar      1 <0>        -0.1233
      3 C3         -0.9021    3.1540    0.8847 C.ar      1 <0>        -0.1201
      4 C4         -0.2887    3.8752   -0.1225 C.ar      1 <0>        -0.0741
      5 C5          0.1209    3.2373   -1.2785 C.ar      1 <0>        -0.1357
      6 C6         -0.0825    1.8781   -1.4270 C.ar      1 <0>        -0.1195
      7 C7         -0.0661    5.3568    0.0398 C.3       1 <0>        -0.0466
      8 C8          0.6518    5.6401    1.3756 C.3       1 <0>        -0.1557
      9 C9          0.0119    6.9578    1.8787 C.3       1 <0>        -0.1644
     10 C10        -1.4744    6.7918    1.4755 C.3       1 <0>        -0.1628
     11 C11        -1.4179    6.0891    0.1034 C.3       1 <0>        -0.1500
     12 C12         0.7533    5.8844   -1.1097 C.2       1 <0>         0.3203
     13 O1          0.2611    6.6641   -1.8976 O.2       1 <0>        -0.3471
     14 N1          2.0329    5.4897   -1.2622 N.am      1 <0>        -0.3314
     15 C13         2.8277    6.0633   -2.2608 C.ar      1 <0>         0.1166
     16 C14         4.1804    6.2808   -2.0342 C.ar      1 <0>        -0.1878
     17 C15         4.9633    6.8424   -3.0238 C.ar      1 <0>        -0.0067
     18 C16         4.3992    7.1980   -4.2353 C.ar      1 <0>        -0.7825
     19 C17         3.0513    6.9880   -4.4619 C.ar      1 <0>        -0.0138
     20 C18         2.2642    6.4216   -3.4785 C.ar      1 <0>        -0.1555
     21 S1          5.4001    7.9198   -5.4929 S.o2      1 <0>         2.7634
     22 O2          6.7358    7.5094   -5.2345 O.2       1 <0>        -0.9222
     23 O3          4.7491    7.6602   -6.7291 O.2       1 <0>        -0.9151
     24 N2          5.3578    9.5603   -5.2711 N.pl3     1 <0>        -0.9287
     25 H1         -0.8550    0.0950   -0.5360 H         1 <0>         0.1324
     26 H2         -1.5939    1.2331    1.5187 H         1 <0>         0.1325
     27 H3         -1.2218    3.6523    1.7879 H         1 <0>         0.1350
     28 H4          0.6001    3.8008   -2.0654 H         1 <0>         0.1387
     29 H5          0.2375    1.3798   -2.3302 H         1 <0>         0.1344
     30 H6          0.4702    4.8327    2.0850 H         1 <0>         0.0996
     31 H7          1.7214    5.7731    1.2132 H         1 <0>         0.0837
     32 H8          0.4544    7.8183    1.3770 H         1 <0>         0.0939
     33 H9          0.1110    7.0470    2.9605 H         1 <0>         0.0875
     34 H10        -1.9564    7.7653    1.3861 H         1 <0>         0.0913
     35 H11        -1.9993    6.1704    2.2011 H         1 <0>         0.0821
     36 H12        -1.4810    6.8267   -0.6967 H         1 <0>         0.1244
     37 H13        -2.2350    5.3730    0.0159 H         1 <0>         0.0960
     38 H14         2.4029    4.8080   -0.6797 H         1 <0>         0.2436
     39 H15         4.6207    6.0071   -1.0868 H         1 <0>         0.1372
     40 H16         6.0162    7.0077   -2.8499 H         1 <0>         0.1538
     41 H17         2.6137    7.2668   -5.4091 H         1 <0>         0.1557
     42 H18         1.2118    6.2571   -3.6564 H         1 <0>         0.1723
     43 H19         6.1188   10.1043   -5.5278 H         1 <0>         0.2430
     44 H20         4.5720    9.9773   -4.8844 H         1 <0>         0.2317
@<TRIPOS>BOND
     1    1    6 ar
     2    1    2 ar
     3    1   25 1
     4    2    3 ar
     5    2   26 1
     6    3    4 ar
     7    3   27 1
     8    4    5 ar
     9    4    7 1
    10    5    6 ar
    11    5   28 1
    12    6   29 1
    13    7   11 1
    14    7    8 1
    15    7   12 1
    16    8    9 1
    17    8   30 1
    18    8   31 1
    19    9   10 1
    20    9   32 1
    21    9   33 1
    22   10   11 1
    23   10   34 1
    24   10   35 1
    25   11   36 1
    26   11   37 1
    27   12   13 2
    28   12   14 am
    29   14   15 1
    30   14   38 1
    31   15   20 ar
    32   15   16 ar
    33   16   17 ar
    34   16   39 1
    35   17   18 ar
    36   17   40 1
    37   18   19 ar
    38   18   21 1
    39   19   20 ar
    40   19   41 1
    41   20   42 1
    42   21   22 2
    43   21   23 2
    44   21   24 1
    45   24   43 1
    46   24   44 1
@<TRIPOS>MOLECULE
ZINC00616033
   37    39     0     0     0
SMALL
USER_CHARGES

@<TRIPOS>ATOM
      1 C1         12.1162    8.1960   -0.8448 C.ar      1 <0>        -0.1195
      2 C2         11.8398    7.6559    0.3973 C.ar      1 <0>        -0.1275
      3 C3         11.0683    6.5133    0.4980 C.ar      1 <0>        -0.1089
      4 C4         10.5736    5.9105   -0.6434 C.ar      1 <0>        -0.0699
      5 C5         10.8548    6.4474   -1.8858 C.ar      1 <0>        -0.1084
      6 C6         11.6219    7.5929   -1.9862 C.ar      1 <0>        -0.1272
      7 C7          9.7329    4.6646   -0.5337 C.3       1 <0>        -0.2245
      8 S1          7.9848    5.1259   -0.3857 S.3       1 <0>         0.1186
      9 C8          7.1201    3.5358   -0.2647 C.3       1 <0>        -0.3027
     10 C9          5.6384    3.7783   -0.1354 C.2       1 <0>         0.3202
     11 O1          5.2081    4.9121   -0.1258 O.2       1 <0>        -0.3216
     12 N1          4.7914    2.7352   -0.0304 N.am      1 <0>        -0.3269
     13 C10         3.4145    2.9547   -0.0066 C.ar      1 <0>         0.0774
     14 C11         2.9051    4.0863    0.6188 C.ar      1 <0>        -0.1171
     15 C12         1.5418    4.3149    0.6495 C.ar      1 <0>        -0.0400
     16 C13         0.6763    3.4095    0.0515 C.ar      1 <0>        -0.1539
     17 C14         1.1899    2.2592   -0.5839 C.ar      1 <0>        -0.1180
     18 C15         2.5549    2.0374   -0.6100 C.ar      1 <0>        -0.0953
     19 C16         0.0154    1.5267   -1.1039 C.2       1 <0>         0.3598
     20 O2          0.0472    0.4787   -1.7167 O.2       1 <0>        -0.3016
     21 N2         -1.0939    2.2195   -0.7889 N.am      1 <0>        -0.3555
     22 C17        -0.7893    3.3363   -0.1040 C.2       1 <0>         0.3592
     23 O3         -1.5876    4.1516    0.3130 O.2       1 <0>        -0.2987
     24 H1         12.7187    9.0888   -0.9235 H         1 <0>         0.1310
     25 H2         12.2263    8.1268    1.2891 H         1 <0>         0.1322
     26 H3         10.8524    6.0913    1.4684 H         1 <0>         0.1333
     27 H4         10.4719    5.9739   -2.7779 H         1 <0>         0.1338
     28 H5         11.8382    8.0147   -2.9567 H         1 <0>         0.1325
     29 H6         10.0352    4.0988    0.3476 H         1 <0>         0.1003
     30 H7          9.8730    4.0522   -1.4244 H         1 <0>         0.1010
     31 H8          7.4773    2.9937    0.6109 H         1 <0>         0.1146
     32 H9          7.3151    2.9471   -1.1611 H         1 <0>         0.1171
     33 H10         5.1397    1.8318    0.0286 H         1 <0>         0.2373
     34 H11         3.5782    4.7913    1.0839 H         1 <0>         0.1789
     35 H12         1.1514    5.1957    1.1375 H         1 <0>         0.1567
     36 H13         2.9529    1.1586   -1.0955 H         1 <0>         0.1496
     37 H14        -1.9953    1.9481   -1.0231 H         1 <0>         0.2639
@<TRIPOS>BOND
     1    1    6 ar
     2    1    2 ar
     3    1   24 1
     4    2    3 ar
     5    2   25 1
     6    3    4 ar
     7    3   26 1
     8    4    5 ar
     9    4    7 1
    10    5    6 ar
    11    5   27 1
    12    6   28 1
    13    7    8 1
    14    7   29 1
    15    7   30 1
    16    8    9 1
    17    9   10 1
    18    9   31 1
    19    9   32 1
    20   10   11 2
    21   10   12 am
    22   12   13 1
    23   12   33 1
    24   13   18 ar
    25   13   14 ar
    26   14   15 ar
    27   14   34 1
    28   15   16 ar
    29   15   35 1
    30   16   22 1
    31   16   17 ar
    32   17   18 ar
    33   17   19 1
    34   18   36 1
    35   19   20 2
    36   19   21 am
    37   21   22 am
    38   21   37 1
    39   22   23 2
@<TRIPOS>MOLECULE
ZINC00616249
   39    40     0     0     0
SMALL
USER_CHARGES

@<TRIPOS>ATOM
      1 C1         -0.1701   13.7430    0.3570 C.3       1 <0>        -0.2350
      2 C2         -0.1583   12.2361    0.3576 C.2       1 <0>         0.3002
      3 O1         -1.0083   11.6232    0.9687 O.2       1 <0>        -0.3602
      4 N1          0.7965   11.5693   -0.3208 N.am      1 <0>        -0.3180
      5 C3          0.8663   10.1706   -0.2412 C.ar      1 <0>         0.0213
      6 C4         -0.2972    9.4226   -0.1353 C.ar      1 <0>        -0.0746
      7 C5         -0.2296    8.0449   -0.0622 C.ar      1 <0>        -0.1527
      8 C6          1.0037    7.4062   -0.0829 C.ar      1 <0>         0.0796
      9 C7          2.1705    8.1512   -0.1887 C.ar      1 <0>        -0.2442
     10 C8          2.1042    9.5320   -0.2678 C.ar      1 <0>         0.0823
     11 O2          3.2456   10.2636   -0.3711 O.3       1 <0>        -0.2177
     12 C9          4.4789    9.5422   -0.3921 C.3       1 <0>        -0.0605
     13 N2          1.0698    6.0102   -0.0028 N.am      1 <0>        -0.3170
     14 C10         0.0818    5.3224    0.6032 C.2       1 <0>         0.3461
     15 O3         -0.8124    5.9175    1.1726 O.2       1 <0>        -0.3319
     16 C11         0.0855    3.8445    0.5756 C.ar      1 <0>        -0.1330
     17 C12         1.1109    3.1580   -0.0773 C.ar      1 <0>        -0.0694
     18 C13         1.1081    1.7789   -0.0998 C.ar      1 <0>        -0.1413
     19 C14         0.0917    1.0758    0.5227 C.ar      1 <0>        -0.0493
     20 C15        -0.9302    1.7499    1.1669 C.ar      1 <0>        -0.1187
     21 C16        -0.9364    3.1292    1.2017 C.ar      1 <0>        -0.0111
     22 N3         -2.0167    0.9897    1.8247 N.pl3     1 <0>         0.5482
     23 O4         -2.0103   -0.2280    1.7985 O.2       1 <0>        -0.3537
     24 O5         -2.9171    1.5819    2.3923 O.3       1 <0>        -0.3417
     25 H1          0.6631   14.1126   -0.2407 H         1 <0>         0.0784
     26 H2         -1.1084   14.0989   -0.0685 H         1 <0>         0.1114
     27 H3         -0.0735   14.1075    1.3796 H         1 <0>         0.1152
     28 H4          1.4354   12.0567   -0.8641 H         1 <0>         0.2383
     29 H5         -1.2569    9.9175   -0.1150 H         1 <0>         0.1780
     30 H6         -1.1366    7.4639    0.0157 H         1 <0>         0.1735
     31 H7          3.1291    7.6541   -0.2095 H         1 <0>         0.1341
     32 H8          5.3088   10.2437   -0.4773 H         1 <0>         0.1086
     33 H9          4.5805    8.9693    0.5297 H         1 <0>         0.0713
     34 H10         4.4881    8.8631   -1.2447 H         1 <0>         0.0648
     35 H11         1.8268    5.5379   -0.3834 H         1 <0>         0.2295
     36 H12         1.9048    3.7056   -0.5635 H         1 <0>         0.1361
     37 H13         1.9008    1.2466   -0.6045 H         1 <0>         0.1512
     38 H14         0.0938   -0.0040    0.5016 H         1 <0>         0.1692
     39 H15        -1.7326    3.6543    1.7086 H         1 <0>         0.1929
@<TRIPOS>BOND
     1    1    2 1
     2    1   25 1
     3    1   26 1
     4    1   27 1
     5    2    3 2
     6    2    4 am
     7    4    5 1
     8    4   28 1
     9    5   10 ar
    10    5    6 ar
    11    6    7 ar
    12    6   29 1
    13    7    8 ar
    14    7   30 1
    15    8    9 ar
    16    8   13 1
    17    9   10 ar
    18    9   31 1
    19   10   11 1
    20   11   12 1
    21   12   32 1
    22   12   33 1
    23   12   34 1
    24   13   14 am
    25   13   35 1
    26   14   15 2
    27   14   16 1
    28   16   21 ar
    29   16   17 ar
    30   17   18 ar
    31   17   36 1
    32   18   19 ar
    33   18   37 1
    34   19   20 ar
    35   19   38 1
    36   20   21 ar
    37   20   22 1
    38   21   39 1
    39   22   23 2
    40   22   24 1
@<TRIPOS>MOLECULE
ZINC00616753
   39    40     0     0     0
SMALL
USER_CHARGES

@<TRIPOS>ATOM
      1 C1         -0.6724    1.8934   -0.0092 C.3       1 <0>        -0.2178
      2 C2         -0.4699    0.3853    0.1510 C.3       1 <0>        -0.1502
      3 C3         -1.8089   -0.3315   -0.0336 C.3       1 <0>        -0.2399
      4 H1         -2.2482   -0.0406   -0.9878 H         1 <0>         0.1473
      5 C4         -1.5874   -1.8220   -0.0161 C.2       1 <0>         0.3185
      6 O1         -1.8139   -2.4570    0.9920 O.2       1 <0>        -0.3358
      7 N1         -1.1375   -2.4494   -1.1209 N.am      1 <0>        -0.3062
      8 C5         -1.0374   -3.8397   -1.1409 C.ar      1 <0>         0.1072
      9 C6         -1.7570   -4.6039   -0.2328 C.ar      1 <0>        -0.1510
     10 C7         -1.6598   -5.9809   -0.2570 C.ar      1 <0>        -0.0836
     11 C8         -0.8385   -6.6098   -1.1786 C.ar      1 <0>        -0.1569
     12 C9         -0.1125   -5.8670   -2.0846 C.ar      1 <0>        -0.0678
     13 C10        -0.2043   -4.4731   -2.0753 C.ar      1 <0>        -0.0680
     14 C11         0.5477   -3.6954   -3.0135 C.1       1 <0>        -0.0890
     15 N2          1.1443   -3.0785   -3.7578 N.1       1 <0>        -0.0476
     16 S1         -2.9296    0.1277    1.3115 S.3       1 <0>         0.2908
     17 C12        -4.4258   -0.5929    0.7227 C.2       1 <0>         0.0009
     18 N3         -5.5501   -0.5206    1.4878 N.am      1 <0>        -0.2693
     19 H2         -5.5232   -0.0649    2.3775 H         1 <0>         0.2577
     20 C13        -6.7012   -1.0665    1.0407 C.2       1 <0>         0.3307
     21 O2         -7.7191   -1.0067    1.7108 O.2       1 <0>        -0.3640
     22 C14        -6.7034   -1.7093   -0.2096 C.2       1 <0>        -0.3065
     23 C15        -5.5450   -1.7553   -0.9304 C.2       1 <0>         0.0684
     24 N4         -4.4367   -1.1980   -0.4494 N.2       1 <0>        -0.2735
     25 C16        -5.5216   -2.4382   -2.2736 C.3       1 <0>        -0.1694
     26 H3          0.2661    2.4095    0.1932 H         1 <0>         0.0876
     27 H4         -0.9941    2.1106   -1.0277 H         1 <0>         0.0802
     28 H5         -1.4333    2.2344    0.6928 H         1 <0>         0.0881
     29 H6          0.2378    0.0320   -0.5990 H         1 <0>         0.1009
     30 H7         -0.0794    0.1749    1.1467 H         1 <0>         0.1068
     31 H8         -0.8834   -1.9336   -1.9020 H         1 <0>         0.2419
     32 H9         -2.3965   -4.1209    0.4912 H         1 <0>         0.1887
     33 H10        -2.2247   -6.5713    0.4492 H         1 <0>         0.1405
     34 H11        -0.7666   -7.6874   -1.1869 H         1 <0>         0.1381
     35 H12         0.5269   -6.3620   -2.8005 H         1 <0>         0.1429
     36 H13        -7.6068   -2.1598   -0.5935 H         1 <0>         0.1689
     37 H14        -4.5189   -2.3743   -2.6962 H         1 <0>         0.0955
     38 H15        -5.7993   -3.4854   -2.1537 H         1 <0>         0.0983
     39 H16        -6.2297   -1.9488   -2.9424 H         1 <0>         0.0967
@<TRIPOS>BOND
     1    1    2 1
     2    1   26 1
     3    1   27 1
     4    1   28 1
     5    2    3 1
     6    2   29 1
     7    2   30 1
     8    3    4 1
     9    3    5 1
    10    3   16 1
    11    5    6 2
    12    5    7 am
    13    7    8 1
    14    7   31 1
    15    8   13 ar
    16    8    9 ar
    17    9   10 ar
    18    9   32 1
    19   10   11 ar
    20   10   33 1
    21   11   12 ar
    22   11   34 1
    23   12   13 ar
    24   12   35 1
    25   13   14 1
    26   14   15 3
    27   16   17 1
    28   17   24 2
    29   17   18 1
    30   18   19 1
    31   18   20 am
    32   20   21 2
    33   20   22 1
    34   22   23 2
    35   22   36 1
    36   23   24 1
    37   23   25 1
    38   25   37 1
    39   25   38 1
    40   25   39 1
@<TRIPOS>MOLECULE
ZINC00616753
   39    40     0     0     0
SMALL
USER_CHARGES

@<TRIPOS>ATOM
      1 C1         -0.6724    1.8934   -0.0092 C.3       1 <0>        -0.2174
      2 C2         -0.4699    0.3853    0.1510 C.3       1 <0>        -0.1473
      3 C3         -1.8089   -0.3315   -0.0336 C.3       1 <0>        -0.2622
      4 H1         -2.2482   -0.0406   -0.9878 H         1 <0>         0.1418
      5 C4         -1.5874   -1.8220   -0.0161 C.2       1 <0>         0.3187
      6 O1         -1.8139   -2.4570    0.9920 O.2       1 <0>        -0.3339
      7 N1         -1.1375   -2.4494   -1.1209 N.am      1 <0>        -0.3093
      8 C5         -1.0374   -3.8397   -1.1409 C.ar      1 <0>         0.1110
      9 C6         -1.7570   -4.6039   -0.2328 C.ar      1 <0>        -0.1526
     10 C7         -1.6598   -5.9809   -0.2570 C.ar      1 <0>        -0.0848
     11 C8         -0.8385   -6.6098   -1.1786 C.ar      1 <0>        -0.1602
     12 C9         -0.1125   -5.8670   -2.0846 C.ar      1 <0>        -0.0683
     13 C10        -0.2043   -4.4731   -2.0753 C.ar      1 <0>        -0.0712
     14 C11         0.5477   -3.6954   -3.0135 C.1       1 <0>        -0.0874
     15 N2          1.1443   -3.0785   -3.7578 N.1       1 <0>        -0.0500
     16 S1         -2.9296    0.1277    1.3115 S.3       1 <0>         0.3512
     17 C12        -4.4258   -0.5929    0.7227 C.ar      1 <0>        -0.0233
     18 N3         -5.5499   -0.5213    1.4881 N.ar      1 <0>        -0.2511
     19 H2         -8.4661   -1.4588    1.2234 H         1 <0>         0.2665
     20 C13        -6.7010   -1.0672    1.0411 C.ar      1 <0>         0.2345
     21 O2         -7.7198   -1.0042    1.7095 O.3       1 <0>        -0.1706
     22 C14        -6.7064   -1.6984   -0.2151 C.ar      1 <0>        -0.4065
     23 C15        -5.5481   -1.7444   -0.9359 C.ar      1 <0>         0.1067
     24 N4         -4.4382   -1.1927   -0.4521 N.ar      1 <0>        -0.2915
     25 C16        -5.5264   -2.4213   -2.2822 C.3       1 <0>        -0.1736
     26 H3          0.2661    2.4095    0.1932 H         1 <0>         0.0839
     27 H4         -0.9941    2.1106   -1.0277 H         1 <0>         0.0775
     28 H5         -1.4333    2.2344    0.6928 H         1 <0>         0.0914
     29 H6          0.2378    0.0320   -0.5990 H         1 <0>         0.0950
     30 H7         -0.0794    0.1749    1.1467 H         1 <0>         0.1057
     31 H8         -0.8834   -1.9336   -1.9020 H         1 <0>         0.2411
     32 H9         -2.3965   -4.1209    0.4912 H         1 <0>         0.1904
     33 H10        -2.2247   -6.5713    0.4492 H         1 <0>         0.1385
     34 H11        -0.7666   -7.6874   -1.1869 H         1 <0>         0.1363
     35 H12         0.5269   -6.3620   -2.8005 H         1 <0>         0.1415
     36 H13        -7.6112   -2.1441   -0.6015 H         1 <0>         0.1396
     37 H14        -4.5234   -2.3586   -2.7042 H         1 <0>         0.1010
     38 H15        -5.8073   -3.4682   -2.1671 H         1 <0>         0.0954
     39 H16        -6.2328   -1.9267   -2.9490 H         1 <0>         0.0935
@<TRIPOS>BOND
     1    1    2 1
     2    1   26 1
     3    1   27 1
     4    1   28 1
     5    2    3 1
     6    2   29 1
     7    2   30 1
     8    3    4 1
     9    3    5 1
    10    3   16 1
    11    5    6 2
    12    5    7 am
    13    7    8 1
    14    7   31 1
    15    8   13 ar
    16    8    9 ar
    17    9   10 ar
    18    9   32 1
    19   10   11 ar
    20   10   33 1
    21   11   12 ar
    22   11   34 1
    23   12   13 ar
    24   12   35 1
    25   13   14 1
    26   14   15 3
    27   16   17 1
    28   17   24 ar
    29   17   18 ar
    30   18   20 ar
    31   19   21 1
    32   20   21 1
    33   20   22 ar
    34   22   36 1
    35   22   23 ar
    36   23   25 1
    37   23   24 ar
    38   25   37 1
    39   25   38 1
    40   25   39 1
@<TRIPOS>MOLECULE
ZINC00616753
   39    40     0     0     0
SMALL
USER_CHARGES

@<TRIPOS>ATOM
      1 C1         -0.6724    1.8934   -0.0092 C.3       1 <0>        -0.2174
      2 C2         -0.4699    0.3853    0.1510 C.3       1 <0>        -0.1473
      3 C3         -1.8089   -0.3315   -0.0336 C.3       1 <0>        -0.2622
      4 H1         -2.2482   -0.0406   -0.9878 H         1 <0>         0.1418
      5 C4         -1.5874   -1.8220   -0.0161 C.2       1 <0>         0.3187
      6 O1         -1.8139   -2.4570    0.9920 O.2       1 <0>        -0.3339
      7 N1         -1.1375   -2.4494   -1.1209 N.am      1 <0>        -0.3093
      8 C5         -1.0374   -3.8397   -1.1409 C.ar      1 <0>         0.1110
      9 C6         -1.7570   -4.6039   -0.2328 C.ar      1 <0>        -0.1526
     10 C7         -1.6598   -5.9809   -0.2570 C.ar      1 <0>        -0.0848
     11 C8         -0.8385   -6.6098   -1.1786 C.ar      1 <0>        -0.1602
     12 C9         -0.1125   -5.8670   -2.0846 C.ar      1 <0>        -0.0683
     13 C10        -0.2043   -4.4731   -2.0753 C.ar      1 <0>        -0.0712
     14 C11         0.5477   -3.6954   -3.0135 C.1       1 <0>        -0.0874
     15 N2          1.1443   -3.0785   -3.7578 N.1       1 <0>        -0.0500
     16 S1         -2.9296    0.1277    1.3115 S.3       1 <0>         0.3512
     17 C12        -4.4258   -0.5929    0.7227 C.ar      1 <0>        -0.0233
     18 N3         -5.5499   -0.5213    1.4881 N.ar      1 <0>        -0.2511
     19 H2         -8.4661   -1.4588    1.2234 H         1 <0>         0.2665
     20 C13        -6.7010   -1.0672    1.0411 C.ar      1 <0>         0.2345
     21 O2         -7.7198   -1.0042    1.7095 O.3       1 <0>        -0.1706
     22 C14        -6.7064   -1.6984   -0.2151 C.ar      1 <0>        -0.4065
     23 C15        -5.5481   -1.7444   -0.9359 C.ar      1 <0>         0.1067
     24 N4         -4.4382   -1.1927   -0.4521 N.ar      1 <0>        -0.2915
     25 C16        -5.5264   -2.4213   -2.2822 C.3       1 <0>        -0.1736
     26 H3          0.2661    2.4095    0.1932 H         1 <0>         0.0839
     27 H4         -0.9941    2.1106   -1.0277 H         1 <0>         0.0775
     28 H5         -1.4333    2.2344    0.6928 H         1 <0>         0.0914
     29 H6          0.2378    0.0320   -0.5990 H         1 <0>         0.0950
     30 H7         -0.0794    0.1749    1.1467 H         1 <0>         0.1057
     31 H8         -0.8834   -1.9336   -1.9020 H         1 <0>         0.2411
     32 H9         -2.3965   -4.1209    0.4912 H         1 <0>         0.1904
     33 H10        -2.2247   -6.5713    0.4492 H         1 <0>         0.1385
     34 H11        -0.7666   -7.6874   -1.1869 H         1 <0>         0.1363
     35 H12         0.5269   -6.3620   -2.8005 H         1 <0>         0.1415
     36 H13        -7.6112   -2.1441   -0.6015 H         1 <0>         0.1396
     37 H14        -4.5234   -2.3586   -2.7042 H         1 <0>         0.1010
     38 H15        -5.8073   -3.4682   -2.1671 H         1 <0>         0.0954
     39 H16        -6.2328   -1.9267   -2.9490 H         1 <0>         0.0935
@<TRIPOS>BOND
     1    1    2 1
     2    1   26 1
     3    1   27 1
     4    1   28 1
     5    2    3 1
     6    2   29 1
     7    2   30 1
     8    3    4 1
     9    3    5 1
    10    3   16 1
    11    5    6 2
    12    5    7 am
    13    7    8 1
    14    7   31 1
    15    8   13 ar
    16    8    9 ar
    17    9   10 ar
    18    9   32 1
    19   10   11 ar
    20   10   33 1
    21   11   12 ar
    22   11   34 1
    23   12   13 ar
    24   12   35 1
    25   13   14 1
    26   14   15 3
    27   16   17 1
    28   17   24 ar
    29   17   18 ar
    30   18   20 ar
    31   19   21 1
    32   20   21 1
    33   20   22 ar
    34   22   36 1
    35   22   23 ar
    36   23   25 1
    37   23   24 ar
    38   25   37 1
    39   25   38 1
    40   25   39 1
@<TRIPOS>MOLECULE
ZINC00618711
   43    45     0     0     0
SMALL
USER_CHARGES

@<TRIPOS>ATOM
      1 C1        -11.8647    2.7725    0.5941 C.3       1 <0>        -0.2090
      2 C2        -10.3399    2.7773    0.7197 C.3       1 <0>        -0.1854
      3 C3         -9.7132    2.7877   -0.6761 C.3       1 <0>        -0.0061
      4 N1         -8.2532    2.7923   -0.5559 N.am      1 <0>        -0.3190
      5 C4         -7.4990    3.9039   -0.4865 C.2       1 <0>         0.3556
      6 O1         -7.9137    5.0448   -0.5139 O.2       1 <0>        -0.2956
      7 C5         -6.0786    3.5030   -0.3717 C.ar      1 <0>        -0.1104
      8 C6         -4.8850    4.1999   -0.2687 C.ar      1 <0>        -0.0708
      9 C7         -3.6893    3.5095   -0.1685 C.ar      1 <0>        -0.0922
     10 C8         -3.6785    2.1148   -0.1822 C.ar      1 <0>        -0.1161
     11 C9         -4.8780    1.4044   -0.2858 C.ar      1 <0>        -0.0041
     12 C10        -6.0750    2.0931   -0.3803 C.ar      1 <0>        -0.1426
     13 C11        -7.4910    1.6855   -0.4999 C.2       1 <0>         0.3588
     14 O2         -7.8980    0.5420   -0.5414 O.2       1 <0>        -0.2921
     15 C12        -2.3950    1.3854   -0.0808 C.2       1 <0>         0.3441
     16 O3         -2.3845    0.1700   -0.0876 O.2       1 <0>        -0.3466
     17 N2         -1.2377    2.0688    0.0192 N.am      1 <0>        -0.3118
     18 C13        -0.0163    1.3842   -0.0017 C.ar      1 <0>         0.0432
     19 C14         0.0755    0.1438   -0.6165 C.ar      1 <0>        -0.1264
     20 C15         1.2833   -0.5272   -0.6407 C.ar      1 <0>        -0.0619
     21 C16         2.4021    0.0344   -0.0533 C.ar      1 <0>        -0.1339
     22 C17         2.3184    1.2697    0.5616 C.ar      1 <0>        -0.1286
     23 C18         1.1114    1.9494    0.5899 C.ar      1 <0>         0.0240
     24 O4          1.0277    3.1649    1.1935 O.3       1 <0>        -0.2960
     25 C19         1.3814   -1.8742   -1.3093 C.3       1 <0>        -0.1741
     26 H1        -12.1879    3.6644    0.0574 H         1 <0>         0.0760
     27 H2        -12.1814    1.8845    0.0470 H         1 <0>         0.0765
     28 H3        -12.3111    2.7651    1.5885 H         1 <0>         0.0817
     29 H4        -10.0167    1.8853    1.2564 H         1 <0>         0.0945
     30 H5        -10.0231    3.6652    1.2668 H         1 <0>         0.0934
     31 H6        -10.0364    3.6796   -1.2128 H         1 <0>         0.1118
     32 H7        -10.0300    1.8997   -1.2232 H         1 <0>         0.1128
     33 H8         -4.8881    5.2798   -0.2620 H         1 <0>         0.1555
     34 H9         -2.7601    4.0533   -0.0834 H         1 <0>         0.1399
     35 H10        -4.8709    0.3244   -0.2917 H         1 <0>         0.1768
     36 H11        -1.2508    3.0349    0.1055 H         1 <0>         0.2425
     37 H12        -0.7967   -0.2970   -1.0763 H         1 <0>         0.1751
     38 H13         3.3440   -0.4938   -0.0747 H         1 <0>         0.1346
     39 H14         3.1941    1.7053    1.0196 H         1 <0>         0.1420
     40 H15         0.7998    3.1230    2.1323 H         1 <0>         0.2248
     41 H16         1.6420   -1.7406   -2.3592 H         1 <0>         0.0872
     42 H17         2.1507   -2.4691   -0.8169 H         1 <0>         0.0818
     43 H18         0.4226   -2.3873   -1.2353 H         1 <0>         0.0900
@<TRIPOS>BOND
     1    1    2 1
     2    1   26 1
     3    1   27 1
     4    1   28 1
     5    2    3 1
     6    2   29 1
     7    2   30 1
     8    3    4 1
     9    3   31 1
    10    3   32 1
    11    4   13 am
    12    4    5 am
    13    5    6 2
    14    5    7 1
    15    7   12 ar
    16    7    8 ar
    17    8    9 ar
    18    8   33 1
    19    9   10 ar
    20    9   34 1
    21   10   11 ar
    22   10   15 1
    23   11   12 ar
    24   11   35 1
    25   12   13 1
    26   13   14 2
    27   15   16 2
    28   15   17 am
    29   17   18 1
    30   17   36 1
    31   18   23 ar
    32   18   19 ar
    33   19   20 ar
    34   19   37 1
    35   20   21 ar
    36   20   25 1
    37   21   22 ar
    38   21   38 1
    39   22   23 ar
    40   22   39 1
    41   23   24 1
    42   24   40 1
    43   25   41 1
    44   25   42 1
    45   25   43 1
@<TRIPOS>MOLECULE
ZINC00619616
   40    42     0     0     0
SMALL
USER_CHARGES

@<TRIPOS>ATOM
      1 C1         13.4080    4.6181   -0.8689 C.3       1 <0>        -0.1724
      2 C2         11.9079    4.6637   -0.7325 C.ar      1 <0>        -0.1089
      3 C3         11.1875    3.4872   -0.6364 C.ar      1 <0>        -0.0845
      4 C4          9.8130    3.5265   -0.5051 C.ar      1 <0>        -0.2267
      5 C5          9.1541    4.7474   -0.4822 C.ar      1 <0>         0.0893
      6 C6          9.8790    5.9260   -0.5792 C.ar      1 <0>        -0.1458
      7 C7         11.2543    5.8815   -0.7042 C.ar      1 <0>        -0.0366
      8 C8         12.0424    7.1616   -0.8102 C.3       1 <0>        -0.1778
      9 O1          7.8013    4.7885   -0.3593 O.3       1 <0>        -0.1804
     10 C9          7.1201    3.5359   -0.2643 C.3       1 <0>        -0.0326
     11 C10         5.6384    3.7783   -0.1348 C.2       1 <0>         0.3008
     12 O2          5.2081    4.9122   -0.1248 O.2       1 <0>        -0.3140
     13 N1          4.7915    2.7352   -0.0300 N.am      1 <0>        -0.3294
     14 C11         3.4145    2.9547   -0.0060 C.ar      1 <0>         0.0782
     15 C12         2.9053    4.0865    0.6191 C.ar      1 <0>        -0.1169
     16 C13         1.5419    4.3153    0.6497 C.ar      1 <0>        -0.0401
     17 C14         0.6764    3.4100    0.0518 C.ar      1 <0>        -0.1532
     18 C15         1.1899    2.2597   -0.5838 C.ar      1 <0>        -0.1178
     19 C16         2.5548    2.0377   -0.6097 C.ar      1 <0>        -0.0948
     20 C17         0.0153    1.5274   -1.1037 C.2       1 <0>         0.3597
     21 O3          0.0470    0.4794   -1.7167 O.2       1 <0>        -0.3010
     22 N2         -1.0940    2.2202   -0.7886 N.am      1 <0>        -0.3553
     23 C18        -0.7892    3.3369   -0.1036 C.2       1 <0>         0.3591
     24 O4         -1.5874    4.1522    0.3135 O.2       1 <0>        -0.2983
     25 H1         13.8635    4.6337    0.1213 H         1 <0>         0.0851
     26 H2         13.6981    3.7045   -1.3879 H         1 <0>         0.0793
     27 H3         13.7475    5.4831   -1.4386 H         1 <0>         0.0848
     28 H4         11.7004    2.5371   -0.6591 H         1 <0>         0.1315
     29 H5          9.2513    2.6076   -0.4248 H         1 <0>         0.1259
     30 H6          9.3688    6.8776   -0.5568 H         1 <0>         0.1494
     31 H7         12.3262    7.4972    0.1873 H         1 <0>         0.0899
     32 H8         12.9397    6.9877   -1.4041 H         1 <0>         0.0875
     33 H9         11.4313    7.9258   -1.2904 H         1 <0>         0.0853
     34 H10         7.4774    2.9935    0.6111 H         1 <0>         0.0958
     35 H11         7.3150    2.9474   -1.1609 H         1 <0>         0.0986
     36 H12         5.1397    1.8317    0.0286 H         1 <0>         0.2366
     37 H13         3.5784    4.7915    1.0842 H         1 <0>         0.1787
     38 H14         1.1516    5.1963    1.1375 H         1 <0>         0.1569
     39 H15         2.9527    1.1588   -1.0953 H         1 <0>         0.1499
     40 H16        -1.9953    1.9489   -1.0229 H         1 <0>         0.2642
@<TRIPOS>BOND
     1    1    2 1
     2    1   25 1
     3    1   26 1
     4    1   27 1
     5    2    7 ar
     6    2    3 ar
     7    3    4 ar
     8    3   28 1
     9    4    5 ar
    10    4   29 1
    11    5    6 ar
    12    5    9 1
    13    6    7 ar
    14    6   30 1
    15    7    8 1
    16    8   31 1
    17    8   32 1
    18    8   33 1
    19    9   10 1
    20   10   11 1
    21   10   34 1
    22   10   35 1
    23   11   12 2
    24   11   13 am
    25   13   14 1
    26   13   36 1
    27   14   19 ar
    28   14   15 ar
    29   15   16 ar
    30   15   37 1
    31   16   17 ar
    32   16   38 1
    33   17   23 1
    34   17   18 ar
    35   18   19 ar
    36   18   20 1
    37   19   39 1
    38   20   21 2
    39   20   22 am
    40   22   23 am
    41   22   40 1
    42   23   24 2
@<TRIPOS>MOLECULE
ZINC00619715
   40    42     0     0     0
SMALL
USER_CHARGES

@<TRIPOS>ATOM
      1 C1          4.4158   14.9099   -0.4870 C.3       1 <0>        -0.2090
      2 C2          3.6778   13.5763   -0.6195 C.3       1 <0>        -0.1854
      3 C3          3.3843   13.0153    0.7733 C.3       1 <0>        -0.0060
      4 N1          2.6775   11.7383    0.6464 N.am      1 <0>        -0.3190
      5 C4          1.3396   11.6114    0.5914 C.2       1 <0>         0.3557
      6 O1          0.5385   12.5227    0.6384 O.2       1 <0>        -0.2961
      7 C5          1.0076   10.1744    0.4636 C.ar      1 <0>        -0.1106
      8 C6         -0.1781    9.4632    0.3667 C.ar      1 <0>        -0.0711
      9 C7         -0.1483    8.0836    0.2560 C.ar      1 <0>        -0.0939
     10 C8          1.0701    7.4049    0.2416 C.ar      1 <0>        -0.1145
     11 C9          2.2703    8.1142    0.3446 C.ar      1 <0>        -0.0031
     12 C10         2.2425    9.4941    0.4496 C.ar      1 <0>        -0.1415
     13 C11         3.2815   10.5389    0.5692 C.2       1 <0>         0.3585
     14 O2          4.4804   10.3464    0.5939 O.2       1 <0>        -0.2906
     15 C12         1.0921    5.9300    0.1229 C.2       1 <0>         0.3442
     16 O3          2.1531    5.3371    0.1102 O.2       1 <0>        -0.3367
     17 N2         -0.0643    5.2442    0.0290 N.am      1 <0>        -0.3221
     18 C13        -0.0487    3.8461    0.0145 C.ar      1 <0>         0.0699
     19 C14        -1.0737    3.1326    0.6237 C.ar      1 <0>        -0.1698
     20 C15        -1.0579    1.7516    0.6097 C.ar      1 <0>        -0.0985
     21 C16        -0.0236    1.0758   -0.0099 C.ar      1 <0>        -0.1675
     22 C17         1.0055    1.7831   -0.6153 C.ar      1 <0>         0.0884
     23 C18         0.9907    3.1692   -0.6080 C.ar      1 <0>        -0.1527
     24 O4          2.0247    1.1172   -1.2192 O.3       1 <0>        -0.2857
     25 H1          4.6249   15.3096   -1.4793 H         1 <0>         0.0817
     26 H2          3.7952   15.6154    0.0654 H         1 <0>         0.0759
     27 H3          5.3532   14.7549    0.0472 H         1 <0>         0.0767
     28 H4          4.2985   12.8709   -1.1720 H         1 <0>         0.0947
     29 H5          2.7404   13.7313   -1.1538 H         1 <0>         0.0933
     30 H6          2.7636   13.7207    1.3258 H         1 <0>         0.1118
     31 H7          4.3216   12.8603    1.3075 H         1 <0>         0.1131
     32 H8         -1.1238    9.9846    0.3778 H         1 <0>         0.1546
     33 H9         -1.0727    7.5303    0.1809 H         1 <0>         0.1355
     34 H10         3.2139    7.5889    0.3379 H         1 <0>         0.1784
     35 H11        -0.9073    5.7205   -0.0285 H         1 <0>         0.2334
     36 H12        -1.8833    3.6582    1.1082 H         1 <0>         0.1299
     37 H13        -1.8552    1.1986    1.0840 H         1 <0>         0.1354
     38 H14        -0.0139   -0.0041   -0.0189 H         1 <0>         0.1410
     39 H15         1.7887    3.7213   -1.0820 H         1 <0>         0.1745
     40 H16         1.8705    0.9268   -2.1546 H         1 <0>         0.2274
@<TRIPOS>BOND
     1    1    2 1
     2    1   25 1
     3    1   26 1
     4    1   27 1
     5    2    3 1
     6    2   28 1
     7    2   29 1
     8    3    4 1
     9    3   30 1
    10    3   31 1
    11    4   13 am
    12    4    5 am
    13    5    6 2
    14    5    7 1
    15    7   12 ar
    16    7    8 ar
    17    8    9 ar
    18    8   32 1
    19    9   10 ar
    20    9   33 1
    21   10   11 ar
    22   10   15 1
    23   11   12 ar
    24   11   34 1
    25   12   13 1
    26   13   14 2
    27   15   16 2
    28   15   17 am
    29   17   18 1
    30   17   35 1
    31   18   23 ar
    32   18   19 ar
    33   19   20 ar
    34   19   36 1
    35   20   21 ar
    36   20   37 1
    37   21   22 ar
    38   21   38 1
    39   22   23 ar
    40   22   24 1
    41   23   39 1
    42   24   40 1
@<TRIPOS>MOLECULE
ZINC00619819
   40    42     0     0     0
SMALL
USER_CHARGES

@<TRIPOS>ATOM
      1 C1         11.9033    2.1614   -0.6669 C.3       1 <0>        -0.1752
      2 C2         11.1875    3.4872   -0.6358 C.ar      1 <0>        -0.0419
      3 C3         11.9079    4.6637   -0.7328 C.ar      1 <0>        -0.1575
      4 C4         11.2543    5.8815   -0.7040 C.ar      1 <0>        -0.0901
      5 C5          9.8785    5.9258   -0.5849 C.ar      1 <0>        -0.0963
      6 C6          9.1541    4.7474   -0.4822 C.ar      1 <0>         0.0914
      7 C7          9.8125    3.5263   -0.5108 C.ar      1 <0>        -0.2206
      8 O1          7.8013    4.7885   -0.3593 O.3       1 <0>        -0.1791
      9 C8          7.1201    3.5359   -0.2643 C.3       1 <0>        -0.0333
     10 C9          5.6384    3.7783   -0.1348 C.2       1 <0>         0.3011
     11 O2          5.2081    4.9122   -0.1248 O.2       1 <0>        -0.3152
     12 N1          4.7915    2.7352   -0.0300 N.am      1 <0>        -0.3292
     13 C10         3.4145    2.9547   -0.0060 C.ar      1 <0>         0.0780
     14 C11         2.9053    4.0865    0.6191 C.ar      1 <0>        -0.1170
     15 C12         1.5419    4.3153    0.6497 C.ar      1 <0>        -0.0401
     16 C13         0.6764    3.4100    0.0518 C.ar      1 <0>        -0.1530
     17 C14         1.1899    2.2597   -0.5838 C.ar      1 <0>        -0.1177
     18 C15         2.5548    2.0377   -0.6097 C.ar      1 <0>        -0.0948
     19 C16         0.0153    1.5274   -1.1037 C.2       1 <0>         0.3596
     20 O3          0.0470    0.4794   -1.7167 O.2       1 <0>        -0.3009
     21 N2         -1.0940    2.2202   -0.7886 N.am      1 <0>        -0.3552
     22 C17        -0.7892    3.3369   -0.1036 C.2       1 <0>         0.3590
     23 O4         -1.5874    4.1522    0.3135 O.2       1 <0>        -0.2982
     24 C18         9.1660    7.2536   -0.5604 C.3       1 <0>        -0.1686
     25 H1         11.9821    1.8152   -1.6975 H         1 <0>         0.0880
     26 H2         12.9017    2.2775   -0.2452 H         1 <0>         0.0851
     27 H3         11.3437    1.4326   -0.0806 H         1 <0>         0.0788
     28 H4         12.9829    4.6310   -0.8308 H         1 <0>         0.1325
     29 H5         11.8191    6.7989   -0.7796 H         1 <0>         0.1373
     30 H6          9.2503    2.6073   -0.4358 H         1 <0>         0.1270
     31 H7          7.4774    2.9935    0.6111 H         1 <0>         0.0962
     32 H8          7.3150    2.9474   -1.1609 H         1 <0>         0.0987
     33 H9          5.1397    1.8317    0.0286 H         1 <0>         0.2367
     34 H10         3.5784    4.7915    1.0842 H         1 <0>         0.1786
     35 H11         1.1516    5.1963    1.1375 H         1 <0>         0.1569
     36 H12         2.9527    1.1588   -1.0953 H         1 <0>         0.1499
     37 H13        -1.9953    1.9489   -1.0229 H         1 <0>         0.2643
     38 H14         9.0881    7.6052    0.4683 H         1 <0>         0.0872
     39 H15         9.7273    7.9780   -1.1505 H         1 <0>         0.0769
     40 H16         8.1673    7.1378   -0.9815 H         1 <0>         0.1007
@<TRIPOS>BOND
     1    1    2 1
     2    1   25 1
     3    1   26 1
     4    1   27 1
     5    2    7 ar
     6    2    3 ar
     7    3    4 ar
     8    3   28 1
     9    4    5 ar
    10    4   29 1
    11    5    6 ar
    12    5   24 1
    13    6    7 ar
    14    6    8 1
    15    7   30 1
    16    8    9 1
    17    9   10 1
    18    9   31 1
    19    9   32 1
    20   10   11 2
    21   10   12 am
    22   12   13 1
    23   12   33 1
    24   13   18 ar
    25   13   14 ar
    26   14   15 ar
    27   14   34 1
    28   15   16 ar
    29   15   35 1
    30   16   22 1
    31   16   17 ar
    32   17   18 ar
    33   17   19 1
    34   18   36 1
    35   19   20 2
    36   19   21 am
    37   21   22 am
    38   21   37 1
    39   22   23 2
    40   24   38 1
    41   24   39 1
    42   24   40 1
@<TRIPOS>MOLECULE
ZINC00620375
   37    38     0     0     0
SMALL
USER_CHARGES

@<TRIPOS>ATOM
      1 C1          6.1037   10.9219   -1.1302 C.2       1 <0>        -0.1955
      2 C2          5.0165   10.2623   -0.8153 C.2       1 <0>        -0.1981
      3 C3          4.4964   10.2980    0.5986 C.3       1 <0>        -0.0091
      4 N1          3.1019   10.7469    0.5947 N.pl3     1 <0>        -0.2179
      5 C4          2.8141   12.0828    0.6972 C.2       1 <0>         0.2287
      6 C5          1.5087   12.4826    0.6914 C.2       1 <0>        -0.3982
      7 C6          0.4984   11.5065    0.5799 C.2       1 <0>         0.3261
      8 O1         -0.6781   11.8389    0.5724 O.2       1 <0>        -0.3434
      9 N2          0.8333   10.2108    0.4771 N.2       1 <0>        -0.3086
     10 C7          2.0951    9.8350    0.4886 C.2       1 <0>         0.0062
     11 S1          2.4891    8.1226    0.3573 S.3       1 <0>         0.2981
     12 C8          0.8228    7.4241    0.2495 C.3       1 <0>        -0.3040
     13 C9          0.9136    5.9248    0.1270 C.2       1 <0>         0.3028
     14 O2          1.9981    5.3821    0.1139 O.2       1 <0>        -0.2854
     15 N3         -0.2103    5.1872    0.0321 N.am      1 <0>        -0.3098
     16 C10        -0.1321    3.7953    0.0256 C.ar      1 <0>         0.1449
     17 C11        -1.2993    3.0398    0.0345 C.ar      1 <0>        -0.2277
     18 C12        -1.2074    1.6593    0.0280 C.ar      1 <0>        -0.0653
     19 C13         0.0541    1.0795    0.0128 C.ar      1 <0>        -0.2228
     20 C14         1.1710    1.8912    0.0105 C.ar      1 <0>        -0.0117
     21 N4          1.0524    3.2052    0.0107 N.ar      1 <0>        -0.1585
     22 N5          3.8264   13.0082    0.8041 N.pl3     1 <0>        -0.4102
     23 H1          6.6271   11.4914   -0.3765 H         1 <0>         0.1061
     24 H2          6.4765   10.8963   -2.1435 H         1 <0>         0.1283
     25 H3          4.4931    9.6928   -1.5691 H         1 <0>         0.1497
     26 H4          5.0985   10.9879    1.1899 H         1 <0>         0.1008
     27 H5          4.5556    9.3000    1.0328 H         1 <0>         0.1290
     28 H6          1.2546   13.5293    0.7706 H         1 <0>         0.1629
     29 H7          0.3146    7.8300   -0.6251 H         1 <0>         0.1454
     30 H8          0.2620    7.6819    1.1479 H         1 <0>         0.1464
     31 H9         -1.0737    5.6247   -0.0318 H         1 <0>         0.2430
     32 H10        -2.2646    3.5240    0.0460 H         1 <0>         0.1363
     33 H11        -2.0967    1.0466    0.0343 H         1 <0>         0.1393
     34 H12         0.1606    0.0048    0.0073 H         1 <0>         0.1390
     35 H13         2.1544    1.4448    0.0032 H         1 <0>         0.1654
     36 H14         4.7516   12.7167    0.8072 H         1 <0>         0.2202
     37 H15         3.6150   13.9521    0.8763 H         1 <0>         0.2479
@<TRIPOS>BOND
     1    1    2 2
     2    1   23 1
     3    1   24 1
     4    2    3 1
     5    2   25 1
     6    3    4 1
     7    3   26 1
     8    3   27 1
     9    4   10 1
    10    4    5 1
    11    5    6 2
    12    5   22 1
    13    6    7 1
    14    6   28 1
    15    7    8 2
    16    7    9 1
    17    9   10 2
    18   10   11 1
    19   11   12 1
    20   12   13 1
    21   12   29 1
    22   12   30 1
    23   13   14 2
    24   13   15 am
    25   15   16 1
    26   15   31 1
    27   16   21 ar
    28   16   17 ar
    29   17   18 ar
    30   17   32 1
    31   18   19 ar
    32   18   33 1
    33   19   20 ar
    34   19   34 1
    35   20   21 ar
    36   20   35 1
    37   22   36 1
    38   22   37 1
@<TRIPOS>MOLECULE
ZINC00620845
   40    42     0     0     0
SMALL
USER_CHARGES

@<TRIPOS>ATOM
      1 C1         -1.3634   -3.1495   10.0510 C.3       1 <0>        -0.1693
      2 C2          0.0499   -2.8733    9.6070 C.ar      1 <0>         0.0594
      3 C3          1.1226   -3.3149   10.3660 C.ar      1 <0>        -0.2636
      4 C4          2.4067   -3.0399    9.9220 C.ar      1 <0>         0.0589
      5 N1          2.5695   -2.3683    8.7943 N.ar      1 <0>        -0.2021
      6 C5          1.5223   -1.9599    8.0917 C.ar      1 <0>        -0.0608
      7 N2          0.2818   -2.2019    8.4913 N.ar      1 <0>        -0.2435
      8 S1          1.7854   -1.0681    6.5950 S.3       1 <0>         0.2982
      9 C6          0.0698   -0.7845    6.0924 C.3       1 <0>        -0.2122
     10 C7          0.0466   -0.0148    4.7970 C.ar      1 <0>         0.1438
     11 N3          0.0450   -0.6631    3.6455 N.ar      1 <0>        -0.2946
     12 C8          0.0249    0.0138    2.4984 C.ar      1 <0>         0.1885
     13 N4          0.0120    1.3436    2.5140 N.ar      1 <0>        -0.2999
     14 C9          0.0081    1.9904    3.6742 C.ar      1 <0>         0.2522
     15 N5          0.0283    1.3062    4.8159 N.ar      1 <0>        -0.3173
     16 N6         -0.0106    3.3701    3.6960 N.pl3     1 <0>        -0.3646
     17 C10         0.0232   -0.7129    1.2082 C.ar      1 <0>        -0.0778
     18 C11         0.0420   -2.1072    1.1892 C.ar      1 <0>        -0.0610
     19 C12         0.0398   -2.7789   -0.0151 C.ar      1 <0>        -0.1577
     20 C13         0.0184   -2.0746   -1.2070 C.ar      1 <0>        -0.0907
     21 C14        -0.0057   -0.6937   -1.2009 C.ar      1 <0>        -0.1747
     22 C15         0.0021   -0.0041    0.0020 C.ar      1 <0>         0.1242
     23 O1         -0.0163    1.3532    0.0095 O.3       1 <0>        -0.2707
     24 C16         3.6026   -3.5010   10.7145 C.3       1 <0>        -0.1687
     25 H1         -1.7119   -2.3327   10.6831 H         1 <0>         0.0990
     26 H2         -2.0091   -3.2334    9.1768 H         1 <0>         0.1027
     27 H3         -1.3916   -4.0822   10.6143 H         1 <0>         0.0884
     28 H4          0.9613   -3.8612   11.2835 H         1 <0>         0.1455
     29 H5         -0.4450   -0.2124    6.8643 H         1 <0>         0.1423
     30 H6         -0.4316   -1.7425    5.9550 H         1 <0>         0.1424
     31 H7         -0.0091    3.8419    4.5435 H         1 <0>         0.2427
     32 H8         -0.0253    3.8681    2.8637 H         1 <0>         0.2431
     33 H9          0.0580   -2.6603    2.1167 H         1 <0>         0.1595
     34 H10         0.0544   -3.8588   -0.0287 H         1 <0>         0.1359
     35 H11         0.0161   -2.6078   -2.1462 H         1 <0>         0.1330
     36 H12        -0.0264   -0.1504   -2.1341 H         1 <0>         0.1429
     37 H13         0.8616    1.7585    0.0033 H         1 <0>         0.2345
     38 H14         3.8836   -2.7288   11.4306 H         1 <0>         0.0992
     39 H15         3.3532   -4.4180   11.2483 H         1 <0>         0.0872
     40 H16         4.4361   -3.6896   10.0379 H         1 <0>         0.1058
@<TRIPOS>BOND
     1    1    2 1
     2    1   25 1
     3    1   26 1
     4    1   27 1
     5    2    7 ar
     6    2    3 ar
     7    3    4 ar
     8    3   28 1
     9    4    5 ar
    10    4   24 1
    11    5    6 ar
    12    6    7 ar
    13    6    8 1
    14    8    9 1
    15    9   10 1
    16    9   29 1
    17    9   30 1
    18   10   15 ar
    19   10   11 ar
    20   11   12 ar
    21   12   13 ar
    22   12   17 1
    23   13   14 ar
    24   14   15 ar
    25   14   16 1
    26   16   31 1
    27   16   32 1
    28   17   22 ar
    29   17   18 ar
    30   18   19 ar
    31   18   33 1
    32   19   20 ar
    33   19   34 1
    34   20   21 ar
    35   20   35 1
    36   21   22 ar
    37   21   36 1
    38   22   23 1
    39   23   37 1
    40   24   38 1
    41   24   39 1
    42   24   40 1
@<TRIPOS>MOLECULE
ZINC00620935
   43    45     0     0     0
SMALL
USER_CHARGES

@<TRIPOS>ATOM
      1 C1         10.6861    7.5928   -3.7454 C.3       1 <0>        -0.2154
      2 C2         11.2050    7.9671   -2.3556 C.3       1 <0>        -0.0994
      3 C3         12.1294    9.1813   -2.4663 C.3       1 <0>        -0.2098
      4 C4         10.0237    8.3069   -1.4446 C.3       1 <0>        -0.1831
      5 C5          9.1793    7.0761   -1.2367 C.2       1 <0>         0.3030
      6 O1          9.4917    6.0301   -1.7653 O.2       1 <0>        -0.3572
      7 N1          8.0771    7.1378   -0.4636 N.am      1 <0>        -0.3286
      8 C6          7.2456    6.0173   -0.3387 C.ar      1 <0>         0.0335
      9 C7          7.7950    4.7420   -0.3314 C.ar      1 <0>        -0.0925
     10 C8          6.9750    3.6381   -0.2078 C.ar      1 <0>        -0.1311
     11 C9          5.6023    3.8028   -0.0905 C.ar      1 <0>         0.0665
     12 C10         5.0522    5.0766   -0.1035 C.ar      1 <0>        -0.1935
     13 C11         5.8717    6.1815   -0.2218 C.ar      1 <0>        -0.1249
     14 O2          4.7954    2.7155    0.0316 O.3       1 <0>        -0.1537
     15 C12         3.4532    2.9141    0.0223 C.ar      1 <0>         0.0824
     16 C13         2.8295    3.3662   -1.1330 C.ar      1 <0>        -0.1445
     17 C14         1.4621    3.5726   -1.1556 C.ar      1 <0>        -0.0471
     18 C15         0.7083    3.3264   -0.0167 C.ar      1 <0>        -0.1455
     19 C16         1.3392    2.8674    1.1589 C.ar      1 <0>        -0.1216
     20 C17         2.7074    2.6637    1.1724 C.ar      1 <0>        -0.0694
     21 C18         0.2626    2.7112    2.1603 C.2       1 <0>         0.3585
     22 O3          0.4081    2.3325    3.3050 O.2       1 <0>        -0.2932
     23 N2         -0.9059    3.0536    1.5883 N.am      1 <0>        -0.3548
     24 C19        -0.7266    3.4330    0.3104 C.2       1 <0>         0.3584
     25 O4         -1.6013    3.7976   -0.4497 O.2       1 <0>        -0.2969
     26 H1         11.5277    7.3507   -4.3944 H         1 <0>         0.0752
     27 H2         10.0275    6.7279   -3.6665 H         1 <0>         0.1063
     28 H3         10.1334    8.4332   -4.1653 H         1 <0>         0.0641
     29 H4         11.7577    7.1267   -1.9356 H         1 <0>         0.1069
     30 H5         12.4991    9.4479   -1.4761 H         1 <0>         0.0699
     31 H6         12.9710    8.9392   -3.1153 H         1 <0>         0.0815
     32 H7         11.5767   10.0217   -2.8862 H         1 <0>         0.0721
     33 H8          9.4203    9.0875   -1.9080 H         1 <0>         0.1039
     34 H9         10.3962    8.6587   -0.4825 H         1 <0>         0.1006
     35 H10         7.8596    7.9579    0.0064 H         1 <0>         0.2323
     36 H11         8.8635    4.6138   -0.4220 H         1 <0>         0.1733
     37 H12         7.4022    2.6462   -0.2021 H         1 <0>         0.1508
     38 H13         3.9833    5.2041   -0.0166 H         1 <0>         0.1430
     39 H14         5.4439    7.1732   -0.2274 H         1 <0>         0.1338
     40 H15         3.4158    3.5575   -2.0196 H         1 <0>         0.1589
     41 H16         0.9824    3.9247   -2.0569 H         1 <0>         0.1560
     42 H17         3.1949    2.3121    2.0697 H         1 <0>         0.1661
     43 H18        -1.7645    3.0322    2.0391 H         1 <0>         0.2656
@<TRIPOS>BOND
     1    1    2 1
     2    1   26 1
     3    1   27 1
     4    1   28 1
     5    2    3 1
     6    2    4 1
     7    2   29 1
     8    3   30 1
     9    3   31 1
    10    3   32 1
    11    4    5 1
    12    4   33 1
    13    4   34 1
    14    5    6 2
    15    5    7 am
    16    7    8 1
    17    7   35 1
    18    8   13 ar
    19    8    9 ar
    20    9   10 ar
    21    9   36 1
    22   10   11 ar
    23   10   37 1
    24   11   12 ar
    25   11   14 1
    26   12   13 ar
    27   12   38 1
    28   13   39 1
    29   14   15 1
    30   15   20 ar
    31   15   16 ar
    32   16   17 ar
    33   16   40 1
    34   17   18 ar
    35   17   41 1
    36   18   24 1
    37   18   19 ar
    38   19   20 ar
    39   19   21 1
    40   20   42 1
    41   21   22 2
    42   21   23 am
    43   23   24 am
    44   23   43 1
    45   24   25 2
@<TRIPOS>MOLECULE
ZINC00621001
   41    43     0     0     0
SMALL
USER_CHARGES

@<TRIPOS>ATOM
      1 C1         -3.7280   -8.3404   -0.6574 C.3       1 <0>        -0.2344
      2 C2         -3.4098   -7.7923    0.7352 C.3       1 <0>        -0.0077
      3 N1         -2.7093   -6.5120    0.6077 N.am      1 <0>        -0.3193
      4 C3         -1.3730   -6.3806    0.5282 C.2       1 <0>         0.3560
      5 O1         -0.5685   -7.2899    0.5512 O.2       1 <0>        -0.2967
      6 C4         -1.0475   -4.9415    0.4081 C.ar      1 <0>        -0.1111
      7 C5          0.1341   -4.2259    0.2953 C.ar      1 <0>        -0.0711
      8 C6          0.0983   -2.8454    0.1987 C.ar      1 <0>        -0.0943
      9 C7         -1.1220   -2.1701    0.2143 C.ar      1 <0>        -0.1140
     10 C8         -2.3181   -2.8840    0.3332 C.ar      1 <0>        -0.0034
     11 C9         -2.2844   -4.2648    0.4245 C.ar      1 <0>        -0.1415
     12 C10        -3.3179   -5.3138    0.5538 C.2       1 <0>         0.3587
     13 O2         -4.5166   -5.1251    0.6035 O.2       1 <0>        -0.2909
     14 C11        -1.1504   -0.6943    0.1110 C.2       1 <0>         0.3422
     15 O3         -2.2131   -0.1044    0.1245 O.2       1 <0>        -0.3368
     16 N2          0.0021   -0.0041    0.0020 N.am      1 <0>        -0.3202
     17 C12        -0.0163    1.3957    0.0158 C.ar      1 <0>         0.0345
     18 C13         0.9123    2.1097   -0.7303 C.ar      1 <0>        -0.1306
     19 C14         0.8924    3.4913   -0.7216 C.ar      1 <0>        -0.1940
     20 C15        -0.0473    4.1674    0.0398 C.ar      1 <0>         0.0598
     21 C16        -0.9759    3.4549    0.7926 C.ar      1 <0>         0.0616
     22 C17        -0.9593    2.0701    0.7798 C.ar      1 <0>        -0.1176
     23 O4         -1.8988    4.1176    1.5398 O.3       1 <0>        -0.2698
     24 O5         -0.0620    5.5279    0.0517 O.3       1 <0>        -0.1984
     25 C18         0.9199    6.1942   -0.7445 C.3       1 <0>        -0.0653
     26 H1         -4.3610   -7.6314   -1.1910 H         1 <0>         0.0890
     27 H2         -2.8005   -8.4873   -1.2107 H         1 <0>         0.0875
     28 H3         -4.2493   -9.2930   -0.5626 H         1 <0>         0.0891
     29 H4         -2.7768   -8.5013    1.2688 H         1 <0>         0.1107
     30 H5         -4.3374   -7.6454    1.2885 H         1 <0>         0.1121
     31 H6          1.0813   -4.7445    0.2831 H         1 <0>         0.1544
     32 H7          1.0196   -2.2886    0.1112 H         1 <0>         0.1355
     33 H8         -3.2631   -2.3615    0.3498 H         1 <0>         0.1785
     34 H9          0.8443   -0.4772   -0.0860 H         1 <0>         0.2320
     35 H10         1.6483    1.5845   -1.3209 H         1 <0>         0.1312
     36 H11         1.6128    4.0448   -1.3057 H         1 <0>         0.1412
     37 H12        -1.6788    1.5154    1.3637 H         1 <0>         0.1739
     38 H13        -1.6097    4.3096    2.4424 H         1 <0>         0.2247
     39 H14         1.9162    5.9091   -0.4065 H         1 <0>         0.0639
     40 H15         0.7951    5.9091   -1.7891 H         1 <0>         0.0697
     41 H16         0.7973    7.2728   -0.6451 H         1 <0>         0.1108
@<TRIPOS>BOND
     1    1    2 1
     2    1   26 1
     3    1   27 1
     4    1   28 1
     5    2    3 1
     6    2   29 1
     7    2   30 1
     8    3   12 am
     9    3    4 am
    10    4    5 2
    11    4    6 1
    12    6   11 ar
    13    6    7 ar
    14    7    8 ar
    15    7   31 1
    16    8    9 ar
    17    8   32 1
    18    9   10 ar
    19    9   14 1
    20   10   11 ar
    21   10   33 1
    22   11   12 1
    23   12   13 2
    24   14   15 2
    25   14   16 am
    26   16   17 1
    27   16   34 1
    28   17   22 ar
    29   17   18 ar
    30   18   19 ar
    31   18   35 1
    32   19   20 ar
    33   19   36 1
    34   20   21 ar
    35   20   24 1
    36   21   22 ar
    37   21   23 1
    38   22   37 1
    39   23   38 1
    40   24   25 1
    41   25   39 1
    42   25   40 1
    43   25   41 1
@<TRIPOS>MOLECULE
ZINC00621164
   40    42     0     0     0
SMALL
USER_CHARGES

@<TRIPOS>ATOM
      1 C1        -12.9782    1.6279    2.4010 C.3       1 <0>        -0.2143
      2 C2        -11.4744    1.7985    2.1768 C.3       1 <0>        -0.1485
      3 C3        -11.2188    3.0852    1.3893 C.3       1 <0>        -0.1867
      4 C4         -9.7376    3.2532    1.1685 C.2       1 <0>         0.3004
      5 O1         -8.9626    2.4253    1.5987 O.2       1 <0>        -0.3484
      6 N1         -9.2741    4.3234    0.4930 N.am      1 <0>        -0.3299
      7 C5         -7.8956    4.5242    0.3612 C.ar      1 <0>         0.0955
      8 C6         -7.3767    5.8130    0.3681 C.ar      1 <0>        -0.1908
      9 C7         -6.0158    6.0113    0.2389 C.ar      1 <0>        -0.0748
     10 C8         -5.1665    4.9290    0.1073 C.ar      1 <0>        -0.2272
     11 C9         -5.6798    3.6395    0.0939 C.ar      1 <0>         0.0990
     12 C10        -7.0452    3.4365    0.2238 C.ar      1 <0>        -0.1493
     13 O2         -4.8441    2.5766   -0.0408 O.3       1 <0>        -0.1489
     14 C11        -3.5079    2.8130   -0.0439 C.ar      1 <0>         0.0828
     15 C12        -2.8859    3.2778    1.1073 C.ar      1 <0>        -0.1425
     16 C13        -1.5233    3.5152    1.1197 C.ar      1 <0>        -0.0473
     17 C14        -0.7750    3.2996   -0.0289 C.ar      1 <0>        -0.1453
     18 C15        -1.4048    2.8309   -1.2012 C.ar      1 <0>        -0.1221
     19 C16        -2.7668    2.5887   -1.2022 C.ar      1 <0>        -0.0689
     20 C17        -0.3344    2.7103   -2.2140 C.2       1 <0>         0.3587
     21 O3         -0.4806    2.3332   -3.3592 O.2       1 <0>        -0.2939
     22 N2          0.8277    3.0941   -1.6554 N.am      1 <0>        -0.3549
     23 C18         0.6518    3.4554   -0.3718 C.2       1 <0>         0.3584
     24 O4          1.5227    3.8452    0.3802 O.2       1 <0>        -0.2974
     25 H1        -13.3607    2.4800    2.9630 H         1 <0>         0.0711
     26 H2        -13.4850    1.5710    1.4377 H         1 <0>         0.0711
     27 H3        -13.1603    0.7113    2.9620 H         1 <0>         0.0811
     28 H4        -11.0918    0.9465    1.6148 H         1 <0>         0.0985
     29 H5        -10.9676    1.8554    3.1401 H         1 <0>         0.0992
     30 H6        -11.6013    3.9372    1.9513 H         1 <0>         0.1024
     31 H7        -11.7256    3.0282    0.4260 H         1 <0>         0.1013
     32 H8         -9.8960    4.9544    0.0982 H         1 <0>         0.2349
     33 H9         -8.0378    6.6603    0.4750 H         1 <0>         0.1325
     34 H10        -5.6143    7.0139    0.2453 H         1 <0>         0.1358
     35 H11        -4.1025    5.0870    0.0109 H         1 <0>         0.1412
     36 H12        -7.4460    2.4337    0.2185 H         1 <0>         0.1802
     37 H13        -3.4686    3.4491    2.0003 H         1 <0>         0.1599
     38 H14        -1.0450    3.8779    2.0175 H         1 <0>         0.1558
     39 H15        -3.2531    2.2271   -2.0962 H         1 <0>         0.1659
     40 H16         1.6804    3.1082   -2.1175 H         1 <0>         0.2653
@<TRIPOS>BOND
     1    1    2 1
     2    1   25 1
     3    1   26 1
     4    1   27 1
     5    2    3 1
     6    2   28 1
     7    2   29 1
     8    3    4 1
     9    3   30 1
    10    3   31 1
    11    4    5 2
    12    4    6 am
    13    6    7 1
    14    6   32 1
    15    7   12 ar
    16    7    8 ar
    17    8    9 ar
    18    8   33 1
    19    9   10 ar
    20    9   34 1
    21   10   11 ar
    22   10   35 1
    23   11   12 ar
    24   11   13 1
    25   12   36 1
    26   13   14 1
    27   14   19 ar
    28   14   15 ar
    29   15   16 ar
    30   15   37 1
    31   16   17 ar
    32   16   38 1
    33   17   23 1
    34   17   18 ar
    35   18   19 ar
    36   18   20 1
    37   19   39 1
    38   20   21 2
    39   20   22 am
    40   22   23 am
    41   22   40 1
    42   23   24 2
@<TRIPOS>MOLECULE
ZINC00621224
   37    39     0     0     0
SMALL
USER_CHARGES

@<TRIPOS>ATOM
      1 C1         13.8018    3.5913   -0.8773 C.3       1 <0>        -0.1745
      2 C2         12.3495    3.9744   -0.7546 C.ar      1 <0>        -0.0797
      3 C3         11.9856    5.3087   -0.7563 C.ar      1 <0>        -0.1108
      4 C4         10.6559    5.6635   -0.6436 C.ar      1 <0>        -0.1030
      5 C5          9.6828    4.6780   -0.5288 C.ar      1 <0>        -0.2140
      6 C6         10.0527    3.3384   -0.5222 C.ar      1 <0>        -0.1492
      7 C7         11.3839    2.9909   -0.6410 C.ar      1 <0>        -0.1100
      8 S1          7.9848    5.1259   -0.3848 S.3       1 <0>         0.2494
      9 C8          7.1201    3.5359   -0.2643 C.3       1 <0>        -0.3173
     10 C9          5.6384    3.7783   -0.1348 C.2       1 <0>         0.3210
     11 O1          5.2081    4.9122   -0.1248 O.2       1 <0>        -0.3262
     12 N1          4.7915    2.7352   -0.0300 N.am      1 <0>        -0.3247
     13 C10         3.4145    2.9547   -0.0060 C.ar      1 <0>         0.0760
     14 C11         2.9053    4.0865    0.6191 C.ar      1 <0>        -0.1167
     15 C12         1.5419    4.3153    0.6497 C.ar      1 <0>        -0.0401
     16 C13         0.6764    3.4100    0.0518 C.ar      1 <0>        -0.1528
     17 C14         1.1899    2.2597   -0.5838 C.ar      1 <0>        -0.1178
     18 C15         2.5548    2.0377   -0.6097 C.ar      1 <0>        -0.0942
     19 C16         0.0153    1.5274   -1.1037 C.2       1 <0>         0.3596
     20 O2          0.0470    0.4794   -1.7167 O.2       1 <0>        -0.3008
     21 N2         -1.0940    2.2202   -0.7886 N.am      1 <0>        -0.3552
     22 C17        -0.7892    3.3369   -0.1036 C.2       1 <0>         0.3590
     23 O3         -1.5874    4.1522    0.3135 O.2       1 <0>        -0.2981
     24 H1         14.2455    3.5258    0.1162 H         1 <0>         0.0876
     25 H2         13.8819    2.6251   -1.3754 H         1 <0>         0.0820
     26 H3         14.3286    4.3459   -1.4614 H         1 <0>         0.0834
     27 H4         12.7423    6.0741   -0.8456 H         1 <0>         0.1357
     28 H5         10.3724    6.7057   -0.6450 H         1 <0>         0.1421
     29 H6          9.2996    2.5700   -0.4286 H         1 <0>         0.1219
     30 H7         11.6717    1.9500   -0.6404 H         1 <0>         0.1315
     31 H8          7.4774    2.9935    0.6111 H         1 <0>         0.1228
     32 H9          7.3150    2.9474   -1.1609 H         1 <0>         0.1253
     33 H10         5.1397    1.8317    0.0286 H         1 <0>         0.2383
     34 H11         3.5784    4.7915    1.0842 H         1 <0>         0.1784
     35 H12         1.1516    5.1963    1.1375 H         1 <0>         0.1569
     36 H13         2.9527    1.1588   -1.0953 H         1 <0>         0.1501
     37 H14        -1.9953    1.9489   -1.0229 H         1 <0>         0.2643
@<TRIPOS>BOND
     1    1    2 1
     2    1   24 1
     3    1   25 1
     4    1   26 1
     5    2    7 ar
     6    2    3 ar
     7    3    4 ar
     8    3   27 1
     9    4    5 ar
    10    4   28 1
    11    5    6 ar
    12    5    8 1
    13    6    7 ar
    14    6   29 1
    15    7   30 1
    16    8    9 1
    17    9   10 1
    18    9   31 1
    19    9   32 1
    20   10   11 2
    21   10   12 am
    22   12   13 1
    23   12   33 1
    24   13   18 ar
    25   13   14 ar
    26   14   15 ar
    27   14   34 1
    28   15   16 ar
    29   15   35 1
    30   16   22 1
    31   16   17 ar
    32   17   18 ar
    33   17   19 1
    34   18   36 1
    35   19   20 2
    36   19   21 am
    37   21   22 am
    38   21   37 1
    39   22   23 2
@<TRIPOS>MOLECULE
ZINC00626811
   43    45     0     0     0
SMALL
USER_CHARGES

@<TRIPOS>ATOM
      1 C1          1.6808    6.1279   -1.4354 C.3       1 <0>        -0.2342
      2 C2          1.2490    5.8710    0.0098 C.3       1 <0>        -0.0261
      3 N1         -0.0388    5.1726    0.0179 N.am      1 <0>        -0.2436
      4 C3         -0.0549    3.7931    0.0049 C.ar      1 <0>         0.1310
      5 C4          1.1400    3.0783   -0.0156 C.ar      1 <0>        -0.1932
      6 C5          1.1161    1.7007   -0.0281 C.ar      1 <0>        -0.0640
      7 C6         -0.0899    1.0136   -0.0204 C.ar      1 <0>        -0.1755
      8 C7         -1.2746    1.6931   -0.0055 C.ar      1 <0>        -0.0470
      9 C8         -1.2741    3.0927    0.0126 C.ar      1 <0>        -0.1263
     10 C9         -2.5363    3.8391    0.0338 C.2       1 <0>         0.2088
     11 C10        -2.4795    5.2350    0.0469 C.2       1 <0>        -0.3409
     12 C11        -1.1733    5.8925    0.0382 C.2       1 <0>         0.3728
     13 O1         -1.1128    7.1091    0.0491 O.2       1 <0>        -0.3477
     14 C12        -3.7130    6.0300    0.0696 C.2       1 <0>         0.3655
     15 O2         -4.0891    6.5983   -0.9384 O.2       1 <0>        -0.3340
     16 N2         -4.4291    6.1306    1.2070 N.am      1 <0>        -0.3127
     17 C13        -5.6569    6.7861    1.2007 C.ar      1 <0>         0.1338
     18 C14        -6.3944    6.8753    0.0273 C.ar      1 <0>        -0.1593
     19 C15        -7.6138    7.5216    0.0244 C.ar      1 <0>        -0.0795
     20 C16        -8.1067    8.0945    1.1859 C.ar      1 <0>        -0.1630
     21 C17        -7.3865    8.0205    2.3583 C.ar      1 <0>        -0.0820
     22 C18        -6.1530    7.3651    2.3783 C.ar      1 <0>        -0.1791
     23 C19        -5.3768    7.2827    3.6298 C.2       1 <0>         0.3626
     24 O3         -4.2620    6.7972    3.6229 O.2       1 <0>        -0.3911
     25 N3         -5.9031    7.7454    4.7810 N.am      1 <0>        -0.4230
     26 O4         -3.7217    3.1944    0.0403 O.3       1 <0>        -0.2487
     27 H1          0.9314    6.7419   -1.9348 H         1 <0>         0.1022
     28 H2          2.6390    6.6475   -1.4414 H         1 <0>         0.0841
     29 H3          1.7797    5.1773   -1.9595 H         1 <0>         0.0770
     30 H4          1.1502    6.8216    0.5339 H         1 <0>         0.1279
     31 H5          1.9985    5.2570    0.5092 H         1 <0>         0.0909
     32 H6          2.0840    3.6029   -0.0214 H         1 <0>         0.1466
     33 H7          2.0450    1.1500   -0.0443 H         1 <0>         0.1358
     34 H8         -0.0916   -0.0664   -0.0307 H         1 <0>         0.1375
     35 H9         -2.2092    1.1519   -0.0037 H         1 <0>         0.1507
     36 H10        -4.0887    5.7462    2.0300 H         1 <0>         0.2721
     37 H11        -6.0150    6.4352   -0.8831 H         1 <0>         0.1738
     38 H12        -8.1854    7.5851   -0.8897 H         1 <0>         0.1366
     39 H13        -9.0599    8.6019    1.1721 H         1 <0>         0.1325
     40 H14        -7.7750    8.4691    3.2607 H         1 <0>         0.1245
     41 H15        -6.7924    8.1327    4.7865 H         1 <0>         0.2186
     42 H16        -5.3926    7.6912    5.6040 H         1 <0>         0.2322
     43 H17        -4.4884    3.7803   -0.0228 H         1 <0>         0.2531
@<TRIPOS>BOND
     1    1    2 1
     2    1   27 1
     3    1   28 1
     4    1   29 1
     5    2    3 1
     6    2   30 1
     7    2   31 1
     8    3   12 am
     9    3    4 1
    10    4    9 ar
    11    4    5 ar
    12    5    6 ar
    13    5   32 1
    14    6    7 ar
    15    6   33 1
    16    7    8 ar
    17    7   34 1
    18    8    9 ar
    19    8   35 1
    20    9   10 1
    21   10   11 2
    22   10   26 1
    23   11   12 1
    24   11   14 1
    25   12   13 2
    26   14   15 2
    27   14   16 am
    28   16   17 1
    29   16   36 1
    30   17   22 ar
    31   17   18 ar
    32   18   19 ar
    33   18   37 1
    34   19   20 ar
    35   19   38 1
    36   20   21 ar
    37   20   39 1
    38   21   22 ar
    39   21   40 1
    40   22   23 1
    41   23   24 2
    42   23   25 am
    43   25   41 1
    44   25   42 1
    45   26   43 1
@<TRIPOS>MOLECULE
ZINC00627266
   39    42     0     0     0
SMALL
USER_CHARGES

@<TRIPOS>ATOM
      1 C1          4.4012    5.9768   -0.0080 C.3       1 <0>        -0.0523
      2 N1          3.4992    7.1311    0.0059 N.am      1 <0>        -0.2356
      3 C2          2.1270    6.9373    0.0175 C.2       1 <0>         0.0948
      4 C3          1.2932    8.0507    0.0305 C.2       1 <0>        -0.2432
      5 C4          1.8642    9.3360    0.0317 C.2       1 <0>         0.3883
      6 O1          1.1531   10.3257    0.0426 O.2       1 <0>        -0.3690
      7 N2          3.2073    9.4618    0.0201 N.am      1 <0>        -0.3357
      8 H1          3.6164   10.3743    0.0206 H         1 <0>         0.2829
      9 C5          4.0040    8.3792    0.0079 C.2       1 <0>         0.4083
     10 O2          5.2105    8.5309   -0.0019 O.2       1 <0>        -0.3802
     11 N3         -0.0068    7.5654    0.0400 N.pl3     1 <0>        -0.0752
     12 C6          0.0818    6.2083    0.0325 C.2       1 <0>        -0.1341
     13 N4          1.3507    5.8531    0.0241 N.2       1 <0>        -0.1301
     14 S1         -1.2865    5.0983    0.0404 S.3       1 <0>         0.4283
     15 C7         -0.4311    3.5580    0.0246 C.2       1 <0>        -0.1445
     16 N5         -1.0274    2.3290    0.0188 N.pl3     1 <0>        -0.2104
     17 H2         -2.0107    2.1468    0.0208 H         1 <0>         0.2563
     18 C8         -0.0167    1.3826    0.0096 C.ar      1 <0>        -0.0355
     19 C9          0.0021   -0.0041    0.0020 C.ar      1 <0>        -0.1318
     20 C10         1.2077   -0.6744   -0.0131 C.ar      1 <0>        -0.1070
     21 C11         2.4030    0.0294   -0.0212 C.ar      1 <0>        -0.1473
     22 C12         2.4034    1.4061   -0.0138 C.ar      1 <0>        -0.0634
     23 C13         1.1908    2.1004    0.0020 C.ar      1 <0>        -0.0518
     24 N6          0.8713    3.4206    0.0117 N.2       1 <0>        -0.1074
     25 C14        -1.2368    8.3610    0.0551 C.3       1 <0>         0.0115
     26 C15        -1.6453    8.6274    1.4810 C.2       1 <0>        -0.2143
     27 C16        -1.8352    9.8576    1.8890 C.2       1 <0>        -0.1684
     28 H3          4.6155    5.6956   -1.0390 H         1 <0>         0.0858
     29 H4          5.3308    6.2360    0.4987 H         1 <0>         0.1080
     30 H5          3.9283    5.1400    0.5061 H         1 <0>         0.1111
     31 H6         -0.9251   -0.5579    0.0075 H         1 <0>         0.1271
     32 H7          1.2210   -1.7543   -0.0190 H         1 <0>         0.1341
     33 H8          3.3405   -0.5066   -0.0338 H         1 <0>         0.1349
     34 H9          3.3378    1.9477   -0.0199 H         1 <0>         0.1426
     35 H10        -1.0633    9.3080   -0.4561 H         1 <0>         0.1381
     36 H11        -2.0300    7.8134   -0.4539 H         1 <0>         0.1051
     37 H12        -1.7815    7.8040    2.1665 H         1 <0>         0.1337
     38 H13        -2.1280   10.0485    2.9109 H         1 <0>         0.1198
     39 H14        -1.6991   10.6810    1.2035 H         1 <0>         0.1266
@<TRIPOS>BOND
     1    1    2 1
     2    1   28 1
     3    1   29 1
     4    1   30 1
     5    2    9 am
     6    2    3 1
     7    3   13 1
     8    3    4 2
     9    4    5 1
    10    4   11 1
    11    5    6 2
    12    5    7 am
    13    7    8 1
    14    7    9 am
    15    9   10 2
    16   11   12 1
    17   11   25 1
    18   12   13 2
    19   12   14 1
    20   14   15 1
    21   15   24 2
    22   15   16 1
    23   16   17 1
    24   16   18 1
    25   18   23 ar
    26   18   19 ar
    27   19   20 ar
    28   19   31 1
    29   20   21 ar
    30   20   32 1
    31   21   22 ar
    32   21   33 1
    33   22   23 ar
    34   22   34 1
    35   23   24 1
    36   25   26 1
    37   25   35 1
    38   25   36 1
    39   26   27 2
    40   26   37 1
    41   27   38 1
    42   27   39 1
@<TRIPOS>MOLECULE
ZINC00627266
   41    44     0     0     0
SMALL
USER_CHARGES

@<TRIPOS>ATOM
      1 C1          4.4012    5.9768   -0.0080 C.3       1 <0>        -0.0729
      2 N1          3.4992    7.1311    0.0059 N.am      1 <0>        -0.2400
      3 C2          2.1270    6.9373    0.0175 C.2       1 <0>         0.1396
      4 C3          1.2932    8.0507    0.0305 C.2       1 <0>        -0.1423
      5 C4          1.8642    9.3360    0.0317 C.2       1 <0>         0.3708
      6 O1          1.1531   10.3257    0.0426 O.2       1 <0>        -0.2685
      7 N2          3.2073    9.4618    0.0201 N.am      1 <0>        -0.3155
      8 H1          3.6164   10.3743    0.0206 H         1 <0>         0.3285
      9 C5          4.0040    8.3792    0.0079 C.2       1 <0>         0.4042
     10 O2          5.2105    8.5309   -0.0019 O.2       1 <0>        -0.2643
     11 N3         -0.0068    7.5654    0.0400 N.pl3     1 <0>         0.0577
     12 C6          0.0818    6.2083    0.0325 C.cat     1 <0>        -0.1875
     13 S1         -1.2865    5.0983    0.0404 S.3       1 <0>         0.6534
     14 C7         -0.4311    3.5580    0.0246 C.cat     1 <0>        -0.1035
     15 N4         -1.0274    2.3290    0.0188 N.pl3     1 <0>        -0.0900
     16 H2         -2.0107    2.1468    0.0208 H         1 <0>         0.3266
     17 C8         -0.0167    1.3826    0.0096 C.ar      1 <0>         0.0005
     18 C9          0.0021   -0.0041    0.0020 C.ar      1 <0>        -0.0849
     19 C10         1.2077   -0.6744   -0.0131 C.ar      1 <0>        -0.0482
     20 C11         2.4030    0.0294   -0.0212 C.ar      1 <0>        -0.0484
     21 C12         2.4034    1.4061   -0.0138 C.ar      1 <0>        -0.1034
     22 C13         1.1908    2.1004    0.0020 C.ar      1 <0>        -0.0484
     23 C14        -1.2368    8.3610    0.0551 C.3       1 <0>        -0.0055
     24 C15        -1.6453    8.6274    1.4810 C.2       1 <0>        -0.2849
     25 C16        -1.8352    9.8576    1.8890 C.2       1 <0>        -0.0727
     26 H3          4.6155    5.6956   -1.0390 H         1 <0>         0.1183
     27 H4          5.3308    6.2360    0.4987 H         1 <0>         0.1722
     28 H5          3.9283    5.1400    0.5061 H         1 <0>         0.0597
     29 H6         -0.9251   -0.5579    0.0075 H         1 <0>         0.1822
     30 H7          1.2210   -1.7543   -0.0190 H         1 <0>         0.1938
     31 H8          3.3405   -0.5066   -0.0338 H         1 <0>         0.1906
     32 H9          3.3378    1.9477   -0.0199 H         1 <0>         0.1604
     33 H10        -1.0633    9.3080   -0.4561 H         1 <0>         0.1811
     34 H11        -2.0300    7.8134   -0.4539 H         1 <0>         0.1319
     35 H12        -1.7815    7.8040    2.1665 H         1 <0>         0.1412
     36 H13        -2.1280   10.0485    2.9109 H         1 <0>         0.1587
     37 H14        -1.6991   10.6810    1.2035 H         1 <0>         0.1440
     38 N5          1.3517    5.8502    0.0241 N.pl3     1 <0>        -0.1847
     39 H15         1.6924    4.8816    0.0228 H         1 <0>         0.3151
     40 N6          0.8720    3.4214    0.0117 N.pl3     1 <0>        -0.1719
     41 H16         1.5484    4.1938    0.0093 H         1 <0>         0.3068
@<TRIPOS>BOND
     1    1    2 1
     2    1   26 1
     3    1   27 1
     4    1   28 1
     5    2    9 am
     6    2    3 1
     7    3    4 2
     8    3   38 1
     9    4    5 1
    10    4   11 1
    11    5    6 2
    12    5    7 am
    13    7    8 1
    14    7    9 am
    15    9   10 2
    16   11   12 1
    17   11   23 1
    18   12   13 1
    19   12   38 2
    20   13   14 1
    21   14   15 1
    22   14   40 2
    23   15   16 1
    24   15   17 1
    25   17   22 ar
    26   17   18 ar
    27   18   19 ar
    28   18   29 1
    29   19   20 ar
    30   19   30 1
    31   20   21 ar
    32   20   31 1
    33   21   22 ar
    34   21   32 1
    35   22   40 1
    36   23   24 1
    37   23   33 1
    38   23   34 1
    39   24   25 2
    40   24   35 1
    41   25   36 1
    42   25   37 1
    43   38   39 1
    44   40   41 1
@<TRIPOS>MOLECULE
ZINC00627266
   40    43     0     0     0
SMALL
USER_CHARGES

@<TRIPOS>ATOM
      1 C1          4.4012    5.9768   -0.0080 C.3       1 <0>        -0.0694
      2 N1          3.4992    7.1311    0.0059 N.am      1 <0>        -0.2450
      3 C2          2.1270    6.9373    0.0175 C.2       1 <0>         0.1269
      4 C3          1.2932    8.0507    0.0305 C.2       1 <0>        -0.1826
      5 C4          1.8642    9.3360    0.0317 C.2       1 <0>         0.3804
      6 O1          1.1531   10.3257    0.0426 O.2       1 <0>        -0.3095
      7 N2          3.2073    9.4618    0.0201 N.am      1 <0>        -0.3251
      8 H1          3.6164   10.3743    0.0206 H         1 <0>         0.3098
      9 C5          4.0040    8.3792    0.0079 C.2       1 <0>         0.4090
     10 O2          5.2105    8.5309   -0.0019 O.2       1 <0>        -0.3115
     11 N3         -0.0068    7.5654    0.0400 N.pl3     1 <0>        -0.0097
     12 C6          0.0818    6.2083    0.0325 C.cat     1 <0>        -0.1001
     13 S1         -1.2865    5.0983    0.0404 S.3       1 <0>         0.5410
     14 C7         -0.4311    3.5580    0.0246 C.2       1 <0>        -0.1618
     15 N4         -1.0274    2.3290    0.0188 N.pl3     1 <0>        -0.1712
     16 H2         -2.0107    2.1468    0.0208 H         1 <0>         0.2808
     17 C8         -0.0167    1.3826    0.0096 C.ar      1 <0>        -0.0142
     18 C9          0.0021   -0.0041    0.0020 C.ar      1 <0>        -0.1186
     19 C10         1.2077   -0.6744   -0.0131 C.ar      1 <0>        -0.0795
     20 C11         2.4030    0.0294   -0.0212 C.ar      1 <0>        -0.1116
     21 C12         2.4034    1.4061   -0.0138 C.ar      1 <0>        -0.0798
     22 C13         1.1908    2.1004    0.0020 C.ar      1 <0>        -0.0433
     23 N5          0.8713    3.4206    0.0117 N.2       1 <0>        -0.2428
     24 C14        -1.2368    8.3610    0.0551 C.3       1 <0>         0.0070
     25 C15        -1.6453    8.6274    1.4810 C.2       1 <0>        -0.2551
     26 C16        -1.8352    9.8576    1.8890 C.2       1 <0>        -0.1153
     27 H3          4.6155    5.6956   -1.0390 H         1 <0>         0.1073
     28 H4          5.3308    6.2360    0.4987 H         1 <0>         0.1462
     29 H5          3.9283    5.1400    0.5061 H         1 <0>         0.0889
     30 H6         -0.9251   -0.5579    0.0075 H         1 <0>         0.1490
     31 H7          1.2210   -1.7543   -0.0190 H         1 <0>         0.1586
     32 H8          3.3405   -0.5066   -0.0338 H         1 <0>         0.1567
     33 H9          3.3378    1.9477   -0.0199 H         1 <0>         0.1434
     34 H10        -1.0633    9.3080   -0.4561 H         1 <0>         0.1621
     35 H11        -2.0300    7.8134   -0.4539 H         1 <0>         0.1244
     36 H12        -1.7815    7.8040    2.1665 H         1 <0>         0.1403
     37 H13        -2.1280   10.0485    2.9109 H         1 <0>         0.1421
     38 H14        -1.6991   10.6810    1.2035 H         1 <0>         0.1353
     39 N6          1.3517    5.8502    0.0241 N.pl3     1 <0>        -0.1197
     40 H15         1.6924    4.8816    0.0228 H         1 <0>         0.3565
@<TRIPOS>BOND
     1    1    2 1
     2    1   27 1
     3    1   28 1
     4    1   29 1
     5    2    9 am
     6    2    3 1
     7    3    4 2
     8    3   39 1
     9    4    5 1
    10    4   11 1
    11    5    6 2
    12    5    7 am
    13    7    8 1
    14    7    9 am
    15    9   10 2
    16   11   12 1
    17   11   24 1
    18   12   13 1
    19   12   39 2
    20   13   14 1
    21   14   23 2
    22   14   15 1
    23   15   16 1
    24   15   17 1
    25   17   22 ar
    26   17   18 ar
    27   18   19 ar
    28   18   30 1
    29   19   20 ar
    30   19   31 1
    31   20   21 ar
    32   20   32 1
    33   21   22 ar
    34   21   33 1
    35   22   23 1
    36   24   25 1
    37   24   34 1
    38   24   35 1
    39   25   26 2
    40   25   36 1
    41   26   37 1
    42   26   38 1
    43   39   40 1
@<TRIPOS>MOLECULE
ZINC00628252
   47    48     0     0     0
SMALL
USER_CHARGES

@<TRIPOS>ATOM
      1 C1          3.3370    4.3944    5.9764 C.3       1 <0>        -0.1842
      2 C2          3.2436    5.4607    4.9156 C.ar      1 <0>        -0.0157
      3 C3          4.3361    5.7368    4.1149 C.ar      1 <0>        -0.1493
      4 C4          4.2504    6.7149    3.1419 C.ar      1 <0>        -0.0103
      5 C5          3.0718    7.4163    2.9688 C.ar      1 <0>        -0.7652
      6 C6          1.9808    7.1435    3.7726 C.ar      1 <0>        -0.0339
      7 C7          2.0651    6.1624    4.7428 C.ar      1 <0>        -0.1520
      8 S1          2.9625    8.6630    1.7285 S.o2      1 <0>         2.7612
      9 O1          4.2896    9.1063    1.4801 O.2       1 <0>        -0.9113
     10 O2          1.9268    9.5480    2.1324 O.2       1 <0>        -0.9204
     11 N1          2.4415    7.9273    0.3394 N.pl3     1 <0>        -0.8542
     12 C8          1.1038    7.3327    0.2828 C.3       1 <0>         0.0323
     13 H1          0.5733    7.5426    1.2115 H         1 <0>         0.1241
     14 C9          0.3293    7.9306   -0.8934 C.3       1 <0>        -0.1226
     15 C10         0.0989    9.4229   -0.6466 C.3       1 <0>        -0.2047
     16 C11         1.1342    7.7450   -2.1813 C.3       1 <0>        -0.2115
     17 C12         1.2242    5.8418    0.0991 C.2       1 <0>         0.2840
     18 O3          2.3196    5.3266    0.0229 O.2       1 <0>        -0.3416
     19 N2          0.1146    5.0808    0.0194 N.am      1 <0>        -0.3262
     20 C13         0.2252    3.6877   -0.0502 C.ar      1 <0>         0.0742
     21 C14        -0.6972    2.9526   -0.7843 C.ar      1 <0>        -0.1714
     22 C15        -0.5883    1.5774   -0.8526 C.ar      1 <0>        -0.0980
     23 C16         0.4375    0.9291   -0.1911 C.ar      1 <0>        -0.1693
     24 C17         1.3586    1.6578    0.5480 C.ar      1 <0>         0.0887
     25 C18         1.2560    3.0386    0.6142 C.ar      1 <0>        -0.1549
     26 O4          2.3634    1.0185    1.2025 O.3       1 <0>        -0.2915
     27 H2          3.6790    4.8402    6.9104 H         1 <0>         0.0931
     28 H3          2.3558    3.9443    6.1265 H         1 <0>         0.0875
     29 H4          4.0439    3.6276    5.6595 H         1 <0>         0.0889
     30 H5          5.2568    5.1886    4.2499 H         1 <0>         0.1383
     31 H6          5.1041    6.9309    2.5166 H         1 <0>         0.1519
     32 H7          1.0614    7.6945    3.6403 H         1 <0>         0.1420
     33 H8          1.2115    5.9465    5.3681 H         1 <0>         0.1359
     34 H9          3.0221    7.8900   -0.4368 H         1 <0>         0.2574
     35 H10        -0.6319    7.4256   -0.9898 H         1 <0>         0.0879
     36 H11         1.0573    9.9421   -0.6391 H         1 <0>         0.0874
     37 H12        -0.5285    9.8297   -1.4396 H         1 <0>         0.0779
     38 H13        -0.3961    9.5599    0.3148 H         1 <0>         0.0874
     39 H14         1.2983    6.6818   -2.3571 H         1 <0>         0.0826
     40 H15         0.5824    8.1709   -3.0192 H         1 <0>         0.0829
     41 H16         2.0954    8.2499   -2.0849 H         1 <0>         0.0817
     42 H17        -0.7606    5.4990    0.0103 H         1 <0>         0.2344
     43 H18        -1.5002    3.4568   -1.3016 H         1 <0>         0.1303
     44 H19        -1.3063    1.0076   -1.4238 H         1 <0>         0.1349
     45 H20         0.5197   -0.1464   -0.2457 H         1 <0>         0.1403
     46 H21         1.9743    3.6078    1.1856 H         1 <0>         0.1695
     47 H22         3.1679    0.9091    0.6772 H         1 <0>         0.2314
@<TRIPOS>BOND
     1    1    2 1
     2    1   27 1
     3    1   28 1
     4    1   29 1
     5    2    7 ar
     6    2    3 ar
     7    3    4 ar
     8    3   30 1
     9    4    5 ar
    10    4   31 1
    11    5    6 ar
    12    5    8 1
    13    6    7 ar
    14    6   32 1
    15    7   33 1
    16    8    9 2
    17    8   10 2
    18    8   11 1
    19   11   12 1
    20   11   34 1
    21   12   13 1
    22   12   14 1
    23   12   17 1
    24   14   15 1
    25   14   16 1
    26   14   35 1
    27   15   36 1
    28   15   37 1
    29   15   38 1
    30   16   39 1
    31   16   40 1
    32   16   41 1
    33   17   18 2
    34   17   19 am
    35   19   20 1
    36   19   42 1
    37   20   25 ar
    38   20   21 ar
    39   21   22 ar
    40   21   43 1
    41   22   23 ar
    42   22   44 1
    43   23   24 ar
    44   23   45 1
    45   24   25 ar
    46   24   26 1
    47   25   46 1
    48   26   47 1
@<TRIPOS>MOLECULE
ZINC00628254
   47    48     0     0     0
SMALL
USER_CHARGES

@<TRIPOS>ATOM
      1 C1          0.1996    8.3049   -1.8940 C.3       1 <0>        -0.1842
      2 C2          0.2279    7.1863   -0.8845 C.ar      1 <0>        -0.0194
      3 C3         -0.9483    6.7479   -0.3055 C.ar      1 <0>        -0.1512
      4 C4         -0.9223    5.7218    0.6204 C.ar      1 <0>        -0.0210
      5 C5          0.2797    5.1336    0.9667 C.ar      1 <0>        -0.7693
      6 C6          1.4565    5.5752    0.3913 C.ar      1 <0>        -0.0328
      7 C7          1.4300    6.5983   -0.5379 C.ar      1 <0>        -0.1528
      8 S1          0.3128    3.8256    2.1469 S.o2      1 <0>         2.7591
      9 O1         -0.8802    3.9376    2.9108 O.2       1 <0>        -0.9092
     10 O2          1.6031    3.8479    2.7418 O.2       1 <0>        -0.9023
     11 N1          0.2041    2.4037    1.3052 N.pl3     1 <0>        -0.8561
     12 C8          1.2649    2.0239    0.3688 C.3       1 <0>         0.0351
     13 H1          1.7983    2.9167    0.0425 H         1 <0>         0.1047
     14 C9          0.6480    1.3261   -0.8450 C.3       1 <0>        -0.1208
     15 C10        -0.1067    0.0768   -0.3861 C.3       1 <0>        -0.2115
     16 C11        -0.3227    2.2807   -1.5432 C.3       1 <0>        -0.2065
     17 C12         2.2263    1.0861    1.0525 C.2       1 <0>         0.2912
     18 O3          1.8727    0.4621    2.0306 O.2       1 <0>        -0.3294
     19 N2          3.4790    0.9408    0.5769 N.am      1 <0>        -0.3252
     20 C13         4.3425    0.0038    1.1551 C.ar      1 <0>         0.0785
     21 C14         3.8367   -1.1833    1.6699 C.ar      1 <0>        -0.1368
     22 C15         4.6892   -2.1087    2.2398 C.ar      1 <0>        -0.0982
     23 C16         6.0468   -1.8564    2.2996 C.ar      1 <0>        -0.1685
     24 C17         6.5575   -0.6722    1.7874 C.ar      1 <0>         0.0876
     25 C18         5.7057    0.2566    1.2099 C.ar      1 <0>        -0.1879
     26 O4          7.8927   -0.4257    1.8465 O.3       1 <0>        -0.2891
     27 H2          0.3096    9.2602   -1.3809 H         1 <0>         0.0965
     28 H3          1.0184    8.1763   -2.6019 H         1 <0>         0.0859
     29 H4         -0.7497    8.2872   -2.4294 H         1 <0>         0.0869
     30 H5         -1.8875    7.2072   -0.5764 H         1 <0>         0.1384
     31 H6         -1.8412    5.3795    1.0730 H         1 <0>         0.1521
     32 H7          2.3961    5.1186    0.6651 H         1 <0>         0.1451
     33 H8          2.3489    6.9407   -0.9905 H         1 <0>         0.1366
     34 H9         -0.5638    1.8242    1.4291 H         1 <0>         0.2570
     35 H10         1.4377    1.0390   -1.5393 H         1 <0>         0.0970
     36 H11        -0.9547    0.3713    0.2322 H         1 <0>         0.0797
     37 H12        -0.4653   -0.4715   -1.2572 H         1 <0>         0.0806
     38 H13         0.5621   -0.5593    0.1936 H         1 <0>         0.0923
     39 H14         0.2269    3.1384   -1.9309 H         1 <0>         0.0750
     40 H15        -0.8139    1.7616   -2.3662 H         1 <0>         0.0831
     41 H16        -1.0728    2.6221   -0.8298 H         1 <0>         0.0819
     42 H17         3.7820    1.4857   -0.1661 H         1 <0>         0.2293
     43 H18         2.7763   -1.3830    1.6241 H         1 <0>         0.1583
     44 H19         4.2943   -3.0311    2.6391 H         1 <0>         0.1369
     45 H20         6.7111   -2.5822    2.7451 H         1 <0>         0.1396
     46 H21         6.1020    1.1769    0.8068 H         1 <0>         0.1390
     47 H22         8.3852   -0.7407    1.0762 H         1 <0>         0.2248
@<TRIPOS>BOND
     1    1    2 1
     2    1   27 1
     3    1   28 1
     4    1   29 1
     5    2    7 ar
     6    2    3 ar
     7    3    4 ar
     8    3   30 1
     9    4    5 ar
    10    4   31 1
    11    5    6 ar
    12    5    8 1
    13    6    7 ar
    14    6   32 1
    15    7   33 1
    16    8    9 2
    17    8   10 2
    18    8   11 1
    19   11   12 1
    20   11   34 1
    21   12   13 1
    22   12   14 1
    23   12   17 1
    24   14   15 1
    25   14   16 1
    26   14   35 1
    27   15   36 1
    28   15   37 1
    29   15   38 1
    30   16   39 1
    31   16   40 1
    32   16   41 1
    33   17   18 2
    34   17   19 am
    35   19   20 1
    36   19   42 1
    37   20   25 ar
    38   20   21 ar
    39   21   22 ar
    40   21   43 1
    41   22   23 ar
    42   22   44 1
    43   23   24 ar
    44   23   45 1
    45   24   25 ar
    46   24   26 1
    47   25   46 1
    48   26   47 1
@<TRIPOS>MOLECULE
ZINC00629534
   44    47     0     0     0
SMALL
USER_CHARGES

@<TRIPOS>ATOM
      1 C1         -0.0127    1.0858    0.0080 C.3       1 <0>        -0.0613
      2 O1         -0.6816    1.5467    1.1837 O.3       1 <0>        -0.2158
      3 C2         -0.7875    2.8926    1.3463 C.ar      1 <0>         0.0560
      4 C3         -0.2580    3.7501    0.3930 C.ar      1 <0>        -0.1775
      5 C4         -0.3655    5.1171    0.5581 C.ar      1 <0>        -0.1823
      6 C5         -1.0029    5.6326    1.6772 C.ar      1 <0>         0.0874
      7 C6         -1.5322    4.7753    2.6302 C.ar      1 <0>        -0.0699
      8 C7         -1.4297    3.4078    2.4621 C.ar      1 <0>        -0.1130
      9 C8         -2.2242    5.3353    3.8461 C.3       1 <0>         0.0855
     10 H1         -2.2048    6.4243    3.8032 H         1 <0>         0.1470
     11 C9         -3.6538    4.8655    3.8668 C.2       1 <0>        -0.2554
     12 C10        -4.0450    3.8704    4.7125 C.2       1 <0>         0.1638
     13 C11        -5.4560    3.4535    4.6906 C.ar      1 <0>        -0.1349
     14 C12        -5.9221    2.4426    5.5337 C.ar      1 <0>        -0.0604
     15 C13        -7.2489    2.0766    5.4878 C.ar      1 <0>        -0.1588
     16 C14        -8.1194    2.7073    4.6109 C.ar      1 <0>        -0.0744
     17 C15        -7.6720    3.7074    3.7733 C.ar      1 <0>        -0.1468
     18 C16        -6.3376    4.0915    3.8035 C.ar      1 <0>         0.1357
     19 O2         -5.8811    5.0693    2.9914 O.3       1 <0>        -0.1721
     20 C17        -4.5960    5.4564    3.0070 C.2       1 <0>         0.3701
     21 O3         -4.2359    6.3446    2.2544 O.2       1 <0>        -0.2808
     22 O4         -3.1759    3.2758    5.5514 O.3       1 <0>        -0.1416
     23 C18        -2.0151    3.8827    5.8570 C.2       1 <0>         0.2540
     24 C19        -1.5077    4.8727    5.0842 C.2       1 <0>        -0.2479
     25 C20        -0.2684    5.4885    5.4523 C.1       1 <0>        -0.0597
     26 N1          0.7148    5.9770    5.7443 N.1       1 <0>        -0.0697
     27 N2         -1.3282    3.4891    6.9783 N.pl3     1 <0>        -0.3855
     28 O5         -1.1084    6.9785    1.8400 O.3       1 <0>        -0.2017
     29 C21        -0.5401    7.8019    0.8196 C.3       1 <0>        -0.0607
     30 H2          0.0021   -0.0041    0.0020 H         1 <0>         0.1049
     31 H3          1.0099    1.4631    0.0003 H         1 <0>         0.0663
     32 H4         -0.5399    1.4469   -0.8751 H         1 <0>         0.0663
     33 H5          0.2379    3.3488   -0.4784 H         1 <0>         0.1341
     34 H6          0.0463    5.7847   -0.1842 H         1 <0>         0.1372
     35 H7         -1.8457    2.7402    3.2021 H         1 <0>         0.1426
     36 H8         -5.2460    1.9504    6.2170 H         1 <0>         0.1482
     37 H9         -7.6136    1.2951    6.1378 H         1 <0>         0.1406
     38 H10        -9.1579    2.4120    4.5836 H         1 <0>         0.1427
     39 H11        -8.3585    4.1912    3.0943 H         1 <0>         0.1575
     40 H12        -0.4898    3.9189    7.2092 H         1 <0>         0.2612
     41 H13        -1.6812    2.7813    7.5398 H         1 <0>         0.2285
     42 H14        -0.6933    8.8511    1.0721 H         1 <0>         0.1085
     43 H15         0.5280    7.5990    0.7419 H         1 <0>         0.0635
     44 H16        -1.0217    7.5835   -0.1336 H         1 <0>         0.0682
@<TRIPOS>BOND
     1    1    2 1
     2    1   30 1
     3    1   31 1
     4    1   32 1
     5    2    3 1
     6    3    8 ar
     7    3    4 ar
     8    4    5 ar
     9    4   33 1
    10    5    6 ar
    11    5   34 1
    12    6    7 ar
    13    6   28 1
    14    7    8 ar
    15    7    9 1
    16    8   35 1
    17    9   10 1
    18    9   24 1
    19    9   11 1
    20   11   20 1
    21   11   12 2
    22   12   13 1
    23   12   22 1
    24   13   18 ar
    25   13   14 ar
    26   14   15 ar
    27   14   36 1
    28   15   16 ar
    29   15   37 1
    30   16   17 ar
    31   16   38 1
    32   17   18 ar
    33   17   39 1
    34   18   19 1
    35   19   20 1
    36   20   21 2
    37   22   23 1
    38   23   24 2
    39   23   27 1
    40   24   25 1
    41   25   26 3
    42   27   40 1
    43   27   41 1
    44   28   29 1
    45   29   42 1
    46   29   43 1
    47   29   44 1
@<TRIPOS>MOLECULE
ZINC00632664
   44    46     0     0     0
SMALL
USER_CHARGES

@<TRIPOS>ATOM
      1 C1         -3.9216    5.9172   -0.3651 C.3       1 <0>        -0.1782
      2 C2         -2.5808    5.2366   -0.2647 C.ar      1 <0>        -0.0702
      3 C3         -2.1966    4.6400    0.9222 C.ar      1 <0>        -0.1199
      4 C4         -0.9706    4.0107    1.0151 C.ar      1 <0>        -0.1233
      5 C5         -0.1198    3.9865   -0.0809 C.ar      1 <0>         0.0522
      6 C6         -0.5075    4.5857   -1.2704 C.ar      1 <0>        -0.1179
      7 C7         -1.7371    5.2094   -1.3596 C.ar      1 <0>        -0.0677
      8 C8         -2.1588    5.8609   -2.6514 C.3       1 <0>        -0.1765
      9 O1          1.0890    3.3719    0.0093 O.3       1 <0>        -0.1281
     10 C9          1.1194    2.0177   -0.0377 C.ar      1 <0>         0.2168
     11 C10         2.3347    1.3401   -0.0503 C.ar      1 <0>        -0.2678
     12 C11         2.3179   -0.0495   -0.0990 C.ar      1 <0>         0.2367
     13 N1          1.1489   -0.6820   -0.1321 N.ar      1 <0>        -0.2780
     14 C12         0.0106   -0.0044   -0.1191 C.ar      1 <0>        -0.0015
     15 N2         -0.0107    1.3201   -0.0726 N.ar      1 <0>        -0.3083
     16 S1         -1.5141   -0.8864   -0.1642 S.3       1 <0>         0.2628
     17 C13        -2.6793    0.4981   -0.1262 C.3       1 <0>        -0.3228
     18 N3          3.5120   -0.7704   -0.1125 N.pl3     1 <0>        -0.1317
     19 C14         3.6724   -2.0512    0.3105 C.2       1 <0>         0.2498
     20 C15         5.0131   -2.3771    0.1210 C.2       1 <0>        -0.3922
     21 C16         5.6424   -1.2364   -0.4323 C.2       1 <0>        -0.0613
     22 N4          4.7477   -0.2998   -0.5696 N.2       1 <0>        -0.0846
     23 C17         5.6523   -3.6604    0.4349 C.2       1 <0>         0.4030
     24 O2          4.9948   -4.5674    0.9103 O.2       1 <0>        -0.4120
     25 N5          6.9674   -3.8344    0.1968 N.am      1 <0>        -0.4273
     26 N6          2.6938   -2.8726    0.8295 N.pl3     1 <0>        -0.3581
     27 H1         -4.6706    5.1974   -0.6953 H         1 <0>         0.0877
     28 H2         -4.2026    6.3119    0.6113 H         1 <0>         0.0831
     29 H3         -3.8613    6.7345   -1.0838 H         1 <0>         0.0876
     30 H4         -2.8576    4.6624    1.7760 H         1 <0>         0.1354
     31 H5         -0.6727    3.5414    1.9410 H         1 <0>         0.1413
     32 H6          0.1510    4.5643   -2.1261 H         1 <0>         0.1442
     33 H7         -2.6864    5.1345   -3.2695 H         1 <0>         0.0887
     34 H8         -2.8182    6.7017   -2.4359 H         1 <0>         0.0872
     35 H9         -1.2768    6.2179   -3.1831 H         1 <0>         0.0845
     36 H10         3.2691    1.8809   -0.0223 H         1 <0>         0.1821
     37 H11        -2.5119    1.1378   -0.9927 H         1 <0>         0.1163
     38 H12        -3.6996    0.1150   -0.1491 H         1 <0>         0.1137
     39 H13        -2.5283    1.0752    0.7861 H         1 <0>         0.1126
     40 H14         6.6860   -1.1576   -0.6991 H         1 <0>         0.1851
     41 H15         7.4914   -3.1114   -0.1821 H         1 <0>         0.2119
     42 H16         7.3898   -4.6825    0.4043 H         1 <0>         0.2298
     43 H17         1.7849   -2.5463    0.9205 H         1 <0>         0.2458
     44 H18         2.9144   -3.7766    1.1034 H         1 <0>         0.2687
@<TRIPOS>BOND
     1    1    2 1
     2    1   27 1
     3    1   28 1
     4    1   29 1
     5    2    7 ar
     6    2    3 ar
     7    3    4 ar
     8    3   30 1
     9    4    5 ar
    10    4   31 1
    11    5    6 ar
    12    5    9 1
    13    6    7 ar
    14    6   32 1
    15    7    8 1
    16    8   33 1
    17    8   34 1
    18    8   35 1
    19    9   10 1
    20   10   15 ar
    21   10   11 ar
    22   11   12 ar
    23   11   36 1
    24   12   13 ar
    25   12   18 1
    26   13   14 ar
    27   14   15 ar
    28   14   16 1
    29   16   17 1
    30   17   37 1
    31   17   38 1
    32   17   39 1
    33   18   22 1
    34   18   19 1
    35   19   20 2
    36   19   26 1
    37   20   21 1
    38   20   23 1
    39   21   22 2
    40   21   40 1
    41   23   24 2
    42   23   25 am
    43   25   41 1
    44   25   42 1
    45   26   43 1
    46   26   44 1
@<TRIPOS>MOLECULE
ZINC00632673
   41    43     0     0     0
SMALL
USER_CHARGES

@<TRIPOS>ATOM
      1 C1         -3.5947    2.7408    2.4473 C.3       1 <0>        -0.1728
      2 C2         -4.1711    2.4228    1.0917 C.ar      1 <0>        -0.0662
      3 C3         -5.3134    1.6524    0.9894 C.ar      1 <0>        -0.1216
      4 C4         -5.8431    1.3611   -0.2539 C.ar      1 <0>        -0.1170
      5 C5         -5.2315    1.8397   -1.3981 C.ar      1 <0>        -0.1263
      6 C6         -4.0922    2.6144   -1.3011 C.ar      1 <0>        -0.1128
      7 C7         -3.5554    2.9038   -0.0546 C.ar      1 <0>         0.0525
      8 O1         -2.4317    3.6618    0.0432 O.3       1 <0>        -0.1285
      9 C8         -1.2377    3.0239    0.1113 C.ar      1 <0>         0.2044
     10 C9         -0.0651    3.7421    0.3193 C.ar      1 <0>        -0.2570
     11 C10         1.1347    3.0415    0.3811 C.ar      1 <0>         0.2246
     12 N1          1.1179    1.7183    0.2399 N.ar      1 <0>        -0.2996
     13 C11        -0.0142    1.0741    0.0443 C.ar      1 <0>         0.0829
     14 N2         -1.1702    1.7030   -0.0252 N.ar      1 <0>        -0.2867
     15 N3          2.3369    3.7151    0.5882 N.pl3     1 <0>        -0.1218
     16 C12         3.4533    3.1740    1.1363 C.2       1 <0>         0.2245
     17 C13         4.4275    4.1701    1.1643 C.2       1 <0>        -0.3544
     18 C14         3.8058    5.3682    0.5936 C.2       1 <0>        -0.1280
     19 N4          2.5767    5.0542    0.2688 N.2       1 <0>        -0.1022
     20 S1          4.5712    6.9412    0.3827 S.3       1 <0>         0.2469
     21 C15         3.2733    7.9639   -0.3657 C.3       1 <0>        -0.3278
     22 C16         5.7978    4.0459    1.6685 C.2       1 <0>         0.3882
     23 O2          6.0398    4.2823    2.8377 O.2       1 <0>        -0.3592
     24 N5          6.7901    3.6699    0.8376 N.am      1 <0>        -0.4261
     25 N6          3.5984    1.8771    1.5813 N.pl3     1 <0>        -0.3788
     26 H1         -4.0329    3.6664    2.8204 H         1 <0>         0.0932
     27 H2         -3.8201    1.9279    3.1377 H         1 <0>         0.0840
     28 H3         -2.5142    2.8579    2.3643 H         1 <0>         0.0843
     29 H4         -5.7931    1.2776    1.8816 H         1 <0>         0.1359
     30 H5         -6.7363    0.7589   -0.3316 H         1 <0>         0.1325
     31 H6         -5.6478    1.6114   -2.3682 H         1 <0>         0.1350
     32 H7         -3.6174    2.9916   -2.1948 H         1 <0>         0.1415
     33 H8         -0.0856    4.8163    0.4297 H         1 <0>         0.1818
     34 H9          0.0061    0.0000   -0.0669 H         1 <0>         0.2028
     35 H10         2.4158    8.0112    0.3054 H         1 <0>         0.1087
     36 H11         3.6568    8.9698   -0.5367 H         1 <0>         0.1177
     37 H12         2.9676    7.5253   -1.3156 H         1 <0>         0.1061
     38 H13         6.5972    3.4815   -0.0942 H         1 <0>         0.2191
     39 H14         7.6972    3.5877    1.1714 H         1 <0>         0.2263
     40 H15         2.8563    1.2559    1.5155 H         1 <0>         0.2492
     41 H16         4.4425    1.5859    1.9602 H         1 <0>         0.2447
@<TRIPOS>BOND
     1    1    2 1
     2    1   26 1
     3    1   27 1
     4    1   28 1
     5    2    7 ar
     6    2    3 ar
     7    3    4 ar
     8    3   29 1
     9    4    5 ar
    10    4   30 1
    11    5    6 ar
    12    5   31 1
    13    6    7 ar
    14    6   32 1
    15    7    8 1
    16    8    9 1
    17    9   14 ar
    18    9   10 ar
    19   10   11 ar
    20   10   33 1
    21   11   12 ar
    22   11   15 1
    23   12   13 ar
    24   13   14 ar
    25   13   34 1
    26   15   19 1
    27   15   16 1
    28   16   17 2
    29   16   25 1
    30   17   18 1
    31   17   22 1
    32   18   19 2
    33   18   20 1
    34   20   21 1
    35   21   35 1
    36   21   36 1
    37   21   37 1
    38   22   23 2
    39   22   24 am
    40   24   38 1
    41   24   39 1
    42   25   40 1
    43   25   41 1
@<TRIPOS>MOLECULE
ZINC00634089
   43    45     0     0     0
SMALL
USER_CHARGES

@<TRIPOS>ATOM
      1 C1          2.4816    1.0399   -0.0161 C.3       1 <0>        -0.1749
      2 C2          1.1704    1.7825    0.0005 C.ar      1 <0>        -0.0402
      3 C3          1.1678    3.1708    0.0084 C.ar      1 <0>        -0.1513
      4 C4         -0.0112    3.8608    0.0239 C.ar      1 <0>        -0.0631
      5 C5         -1.2216    3.1633    0.0313 C.ar      1 <0>        -0.1370
      6 C6         -2.6283    3.5629    0.0476 C.2       1 <0>        -0.0594
      7 C7         -3.3468    2.4104    0.0477 C.2       1 <0>        -0.0895
      8 O1         -2.5100    1.3518    0.0330 O.3       1 <0>        -0.0848
      9 C8         -1.2250    1.7560    0.0174 C.ar      1 <0>         0.0496
     10 C9         -0.0126    1.0758    0.0080 C.ar      1 <0>        -0.1275
     11 C10        -4.8142    2.3285    0.0610 C.2       1 <0>         0.3906
     12 O2         -5.4802    3.3465    0.0731 O.2       1 <0>        -0.3599
     13 N1         -5.4220    1.1255    0.0598 N.am      1 <0>        -0.3794
     14 C11        -6.8847    1.0439    0.0730 C.3       1 <0>         0.0285
     15 C12        -7.3071   -0.4027    0.0687 C.ar      1 <0>        -0.0543
     16 C13        -7.5175   -1.0577   -1.1303 C.ar      1 <0>        -0.1358
     17 C14        -7.9008   -2.3858   -1.1344 C.ar      1 <0>        -0.0283
     18 C15        -8.0824   -3.0564    0.0607 C.ar      1 <0>        -0.7555
     19 C16        -7.8771   -2.3999    1.2598 C.ar      1 <0>        -0.0283
     20 C17        -7.4897   -1.0730    1.2638 C.ar      1 <0>        -0.1358
     21 S1         -8.5752   -4.7481    0.0556 S.o2      1 <0>         2.7611
     22 O3         -8.1725   -5.2846   -1.1971 O.2       1 <0>        -0.9147
     23 O4         -8.1473   -5.2995    1.2935 O.2       1 <0>        -0.9147
     24 N2        -10.2308   -4.7759    0.0721 N.pl3     1 <0>        -0.9307
     25 C18        -3.1708    4.9688    0.0611 C.3       1 <0>        -0.1567
     26 H1          2.7880    0.8665   -1.0477 H         1 <0>         0.0907
     27 H2          3.2412    1.6326    0.4937 H         1 <0>         0.0857
     28 H3          2.3642    0.0837    0.4937 H         1 <0>         0.0852
     29 H4          2.1042    3.7089    0.0027 H         1 <0>         0.1357
     30 H5         -0.0076    4.9408    0.0308 H         1 <0>         0.1360
     31 H6          0.0021   -0.0041    0.0020 H         1 <0>         0.1419
     32 H7         -4.8910    0.3139    0.0502 H         1 <0>         0.2396
     33 H8         -7.2677    1.5316    0.9694 H         1 <0>         0.1039
     34 H9         -7.2844    1.5418   -0.8104 H         1 <0>         0.1041
     35 H10        -7.3792   -0.5327   -2.0640 H         1 <0>         0.1445
     36 H11        -8.0609   -2.8988   -2.0712 H         1 <0>         0.1565
     37 H12        -8.0190   -2.9239    2.1935 H         1 <0>         0.1565
     38 H13        -7.3292   -0.5601    2.2006 H         1 <0>         0.1444
     39 H14       -10.7298   -3.9441    0.0821 H         1 <0>         0.2303
     40 H15       -10.7017   -5.6240    0.0718 H         1 <0>         0.2451
     41 H16        -3.3119    5.3136   -0.9633 H         1 <0>         0.0946
     42 H17        -4.1268    4.9844    0.5846 H         1 <0>         0.1175
     43 H18        -2.4662    5.6252    0.5716 H         1 <0>         0.0797
@<TRIPOS>BOND
     1    1    2 1
     2    1   26 1
     3    1   27 1
     4    1   28 1
     5    2   10 ar
     6    2    3 ar
     7    3    4 ar
     8    3   29 1
     9    4    5 ar
    10    4   30 1
    11    5    9 ar
    12    5    6 1
    13    6    7 2
    14    6   25 1
    15    7    8 1
    16    7   11 1
    17    8    9 1
    18    9   10 ar
    19   10   31 1
    20   11   12 2
    21   11   13 am
    22   13   14 1
    23   13   32 1
    24   14   15 1
    25   14   33 1
    26   14   34 1
    27   15   20 ar
    28   15   16 ar
    29   16   17 ar
    30   16   35 1
    31   17   18 ar
    32   17   36 1
    33   18   19 ar
    34   18   21 1
    35   19   20 ar
    36   19   37 1
    37   20   38 1
    38   21   22 2
    39   21   23 2
    40   21   24 1
    41   24   39 1
    42   24   40 1
    43   25   41 1
    44   25   42 1
    45   25   43 1
@<TRIPOS>MOLECULE
ZINC00634100
   43    45     0     0     0
SMALL
USER_CHARGES

@<TRIPOS>ATOM
      1 C1          0.7947   -9.9466   -0.6324 C.3       1 <0>        -0.1775
      2 C2          1.5948   -8.6709   -0.5726 C.ar      1 <0>        -0.0402
      3 C3          2.9799   -8.7251   -0.6515 C.ar      1 <0>        -0.1457
      4 C4          3.7215   -7.5789   -0.5995 C.ar      1 <0>        -0.0668
      5 C5          3.0804   -6.3448   -0.4659 C.ar      1 <0>        -0.1349
      6 C6          3.5424   -4.9597   -0.3847 C.2       1 <0>        -0.0484
      7 C7          2.4254   -4.1974   -0.2571 C.2       1 <0>        -0.0994
      8 O1          1.3315   -4.9876   -0.2621 O.3       1 <0>        -0.0863
      9 C8          1.6767   -6.2840   -0.3855 C.ar      1 <0>         0.0529
     10 C9          0.9434   -7.4638   -0.4407 C.ar      1 <0>        -0.0726
     11 C10        -0.5607   -7.4227   -0.3559 C.3       1 <0>        -0.1743
     12 C11         2.4101   -2.7330   -0.1379 C.2       1 <0>         0.3954
     13 O2          3.4558   -2.1111   -0.1444 O.2       1 <0>        -0.3396
     14 N1          1.2376   -2.0786   -0.0214 N.am      1 <0>        -0.3206
     15 C12         1.2159   -0.6806   -0.0052 C.ar      1 <0>         0.1174
     16 C13         0.1615    0.0060   -0.5936 C.ar      1 <0>        -0.1844
     17 C14         0.1433    1.3868   -0.5763 C.ar      1 <0>        -0.0135
     18 C15         1.1732    2.0858    0.0262 C.ar      1 <0>        -0.7810
     19 C16         2.2244    1.4054    0.6129 C.ar      1 <0>        -0.0075
     20 C17         2.2488    0.0246    0.5990 C.ar      1 <0>        -0.1548
     21 S1          1.1463    3.8475    0.0456 S.o2      1 <0>         2.7628
     22 O3          2.4945    4.2727    0.1900 O.2       1 <0>        -0.9179
     23 O4          0.3323    4.2534   -1.0461 O.2       1 <0>        -0.9159
     24 N2          0.3541    4.3099    1.4243 N.pl3     1 <0>        -0.9293
     25 C18         4.9690   -4.4761   -0.4305 C.3       1 <0>        -0.1595
     26 H1          0.5471  -10.1719   -1.6697 H         1 <0>         0.0917
     27 H2          1.3819  -10.7637   -0.2133 H         1 <0>         0.0856
     28 H3         -0.1235   -9.8269   -0.0574 H         1 <0>         0.0885
     29 H4          3.4743   -9.6796   -0.7551 H         1 <0>         0.1371
     30 H5          4.7987   -7.6266   -0.6613 H         1 <0>         0.1370
     31 H6         -0.9787   -7.3305   -1.3583 H         1 <0>         0.0892
     32 H7         -0.9238   -8.3408    0.1062 H         1 <0>         0.0868
     33 H8         -0.8674   -6.5672    0.2458 H         1 <0>         0.0862
     34 H9          0.4089   -2.5774    0.0511 H         1 <0>         0.2473
     35 H10        -0.6433   -0.5394   -1.0639 H         1 <0>         0.1390
     36 H11        -0.6739    1.9213   -1.0375 H         1 <0>         0.1534
     37 H12         3.0271    1.9543    1.0828 H         1 <0>         0.1570
     38 H13         3.0699   -0.5062    1.0577 H         1 <0>         0.1717
     39 H14         0.5828    5.1471    1.8575 H         1 <0>         0.2434
     40 H15        -0.3387    3.7435    1.7987 H         1 <0>         0.2297
     41 H16         5.3738   -4.4423    0.5810 H         1 <0>         0.0961
     42 H17         5.5645   -5.1581   -1.0375 H         1 <0>         0.0831
     43 H18         5.0006   -3.4783   -0.8681 H         1 <0>         0.1186
@<TRIPOS>BOND
     1    1    2 1
     2    1   26 1
     3    1   27 1
     4    1   28 1
     5    2   10 ar
     6    2    3 ar
     7    3    4 ar
     8    3   29 1
     9    4    5 ar
    10    4   30 1
    11    5    9 ar
    12    5    6 1
    13    6    7 2
    14    6   25 1
    15    7    8 1
    16    7   12 1
    17    8    9 1
    18    9   10 ar
    19   10   11 1
    20   11   31 1
    21   11   32 1
    22   11   33 1
    23   12   13 2
    24   12   14 am
    25   14   15 1
    26   14   34 1
    27   15   20 ar
    28   15   16 ar
    29   16   17 ar
    30   16   35 1
    31   17   18 ar
    32   17   36 1
    33   18   19 ar
    34   18   21 1
    35   19   20 ar
    36   19   37 1
    37   20   38 1
    38   21   22 2
    39   21   23 2
    40   21   24 1
    41   24   39 1
    42   24   40 1
    43   25   41 1
    44   25   42 1
    45   25   43 1
@<TRIPOS>MOLECULE
ZINC00634110
   43    45     0     0     0
SMALL
USER_CHARGES

@<TRIPOS>ATOM
      1 C1         -4.8141   -6.1043    1.5681 C.3       1 <0>        -0.2074
      2 C2         -4.8681   -5.4832    0.1708 C.3       1 <0>        -0.1225
      3 C3         -4.2249   -4.1207    0.2016 C.ar      1 <0>        -0.0955
      4 C4         -4.9966   -3.0000    0.4774 C.ar      1 <0>        -0.0881
      5 C5         -4.4293   -1.7447    0.5101 C.ar      1 <0>        -0.1235
      6 C6         -3.0692   -1.5932    0.2649 C.ar      1 <0>         0.0437
      7 C7         -2.2918   -2.7326   -0.0142 C.ar      1 <0>        -0.1302
      8 C8         -2.8865   -3.9965   -0.0426 C.ar      1 <0>        -0.0637
      9 C9         -0.9307   -2.2415   -0.2262 C.2       1 <0>        -0.0506
     10 C10        -0.9861   -0.8949   -0.0572 C.2       1 <0>        -0.0968
     11 O1         -2.2515   -0.5233    0.2287 O.3       1 <0>        -0.0871
     12 C11         0.1579    0.0198   -0.1743 C.2       1 <0>         0.3939
     13 O2          1.2623   -0.4179   -0.4372 O.2       1 <0>        -0.3362
     14 N1         -0.0162    1.3436    0.0094 N.am      1 <0>        -0.3204
     15 C12         1.0884    2.2008    0.0075 C.ar      1 <0>         0.1222
     16 C13         2.3100    1.7632    0.5029 C.ar      1 <0>        -0.1561
     17 C14         3.4002    2.6110    0.4951 C.ar      1 <0>        -0.0080
     18 C15         3.2740    3.8977    0.0045 C.ar      1 <0>        -0.7820
     19 C16         2.0578    4.3383   -0.4846 C.ar      1 <0>        -0.0075
     20 C17         0.9650    3.4939   -0.4846 C.ar      1 <0>        -0.1866
     21 S1          4.6659    4.9780    0.0021 S.o2      1 <0>         2.7637
     22 O3          5.8216    4.1513    0.0081 O.2       1 <0>        -0.9164
     23 O4          4.4269    5.9460   -1.0104 O.2       1 <0>        -0.9188
     24 N2          4.6576    5.7905    1.4450 N.pl3     1 <0>        -0.9319
     25 C18         0.2871   -3.0633   -0.5620 C.3       1 <0>        -0.1595
     26 H1         -3.7751   -6.2000    1.8832 H         1 <0>         0.0781
     27 H2         -5.3495   -5.4656    2.2705 H         1 <0>         0.0770
     28 H3         -5.2793   -7.0898    1.5458 H         1 <0>         0.0757
     29 H4         -5.9071   -5.3875   -0.1443 H         1 <0>         0.0884
     30 H5         -4.3327   -6.1219   -0.5316 H         1 <0>         0.0892
     31 H6         -6.0535   -3.1134    0.6685 H         1 <0>         0.1405
     32 H7         -5.0397   -0.8803    0.7262 H         1 <0>         0.1411
     33 H8         -2.2907   -4.8716   -0.2563 H         1 <0>         0.1386
     34 H9         -0.9082    1.7020    0.1390 H         1 <0>         0.2478
     35 H10         2.4082    0.7598    0.8900 H         1 <0>         0.1663
     36 H11         4.3514    2.2700    0.8764 H         1 <0>         0.1575
     37 H12         1.9627    5.3436   -0.8675 H         1 <0>         0.1551
     38 H13         0.0156    3.8384   -0.8671 H         1 <0>         0.1396
     39 H14         3.9592    5.6169    2.0954 H         1 <0>         0.2290
     40 H15         5.3511    6.4401    1.6399 H         1 <0>         0.2431
     41 H16         0.7772   -3.3794    0.3588 H         1 <0>         0.0963
     42 H17        -0.0134   -3.9414   -1.1336 H         1 <0>         0.0832
     43 H18         0.9783   -2.4635   -1.1541 H         1 <0>         0.1189
@<TRIPOS>BOND
     1    1    2 1
     2    1   26 1
     3    1   27 1
     4    1   28 1
     5    2    3 1
     6    2   29 1
     7    2   30 1
     8    3    8 ar
     9    3    4 ar
    10    4    5 ar
    11    4   31 1
    12    5    6 ar
    13    5   32 1
    14    6   11 1
    15    6    7 ar
    16    7    8 ar
    17    7    9 1
    18    8   33 1
    19    9   10 2
    20    9   25 1
    21   10   11 1
    22   10   12 1
    23   12   13 2
    24   12   14 am
    25   14   15 1
    26   14   34 1
    27   15   20 ar
    28   15   16 ar
    29   16   17 ar
    30   16   35 1
    31   17   18 ar
    32   17   36 1
    33   18   19 ar
    34   18   21 1
    35   19   20 ar
    36   19   37 1
    37   20   38 1
    38   21   22 2
    39   21   23 2
    40   21   24 1
    41   24   39 1
    42   24   40 1
    43   25   41 1
    44   25   42 1
    45   25   43 1
@<TRIPOS>MOLECULE
ZINC00638477
   41    42     0     0     0
SMALL
USER_CHARGES

@<TRIPOS>ATOM
      1 C1         -2.7897   -2.8786   -1.4929 C.3       1 <0>        -0.2202
      2 C2         -2.5014   -2.8634    0.0096 C.3       1 <0>         0.0855
      3 H1         -3.3605   -2.4527    0.5402 H         1 <0>         0.1422
      4 C3         -2.2422   -4.2695    0.4856 C.ar      1 <0>        -0.1178
      5 C4         -0.9498   -4.7556    0.5349 C.ar      1 <0>        -0.0966
      6 C5         -0.7113   -6.0454    0.9715 C.ar      1 <0>        -0.1613
      7 C6         -1.7650   -6.8521    1.3604 C.ar      1 <0>        -0.0873
      8 C7         -3.0588   -6.3710    1.3130 C.ar      1 <0>        -0.2132
      9 C8         -3.3004   -5.0750    0.8801 C.ar      1 <0>         0.1070
     10 O1         -4.5719   -4.5973    0.8379 O.3       1 <0>        -0.2089
     11 C9         -5.6118   -5.4824    1.2589 C.3       1 <0>        -0.0633
     12 N1         -1.3229   -2.0338    0.2724 N.am      1 <0>        -0.3856
     13 C10        -1.4616   -0.7065    0.4610 C.2       1 <0>         0.3454
     14 O2         -2.5646   -0.1977    0.4130 O.2       1 <0>        -0.3560
     15 C11        -0.2727    0.1304    0.7261 C.ar      1 <0>        -0.1451
     16 C12         0.9956   -0.4511    0.7813 C.ar      1 <0>        -0.0475
     17 C13         2.1010    0.3349    1.0285 C.ar      1 <0>        -0.1508
     18 C14         1.9553    1.6989    1.2220 C.ar      1 <0>         0.0449
     19 C15         0.7000    2.2813    1.1684 C.ar      1 <0>        -0.7633
     20 C16        -0.4132    1.5054    0.9218 C.ar      1 <0>         0.0429
     21 S1          0.5248    4.0171    1.4152 S.o2      1 <0>         2.7635
     22 O3          1.4853    4.6454    0.5774 O.2       1 <0>        -0.8998
     23 O4         -0.8647    4.3016    1.3275 O.2       1 <0>        -0.9095
     24 N2          0.9761    4.3378    2.9759 N.pl3     1 <0>        -0.9275
     25 Cl1         3.3519    2.6821    1.5328 Cl        1 <0>         0.0099
     26 H2         -2.9772   -1.8615   -1.8373 H         1 <0>         0.0942
     27 H3         -1.9306   -3.2892   -2.0235 H         1 <0>         0.0718
     28 H4         -3.6665   -3.4958   -1.6885 H         1 <0>         0.0913
     29 H5         -0.1252   -4.1274    0.2318 H         1 <0>         0.1231
     30 H6          0.2996   -6.4235    1.0094 H         1 <0>         0.1315
     31 H7         -1.5761   -7.8594    1.7011 H         1 <0>         0.1326
     32 H8         -3.8815   -7.0015    1.6164 H         1 <0>         0.1385
     33 H9         -6.5743   -4.9777    1.1759 H         1 <0>         0.1126
     34 H10        -5.6113   -6.3703    0.6267 H         1 <0>         0.0687
     35 H11        -5.4429   -5.7743    2.2955 H         1 <0>         0.0696
     36 H12        -0.4428   -2.4397    0.3106 H         1 <0>         0.2213
     37 H13         1.1104   -1.5144    0.6310 H         1 <0>         0.1356
     38 H14         3.0825   -0.1138    1.0718 H         1 <0>         0.1524
     39 H15        -1.3912    1.9613    0.8758 H         1 <0>         0.1923
     40 H16         1.2665    3.6158    3.5549 H         1 <0>         0.2304
     41 H17         0.9499    5.2477    3.3111 H         1 <0>         0.2462
@<TRIPOS>BOND
     1    1    2 1
     2    1   26 1
     3    1   27 1
     4    1   28 1
     5    2    3 1
     6    2    4 1
     7    2   12 1
     8    4    9 ar
     9    4    5 ar
    10    5    6 ar
    11    5   29 1
    12    6    7 ar
    13    6   30 1
    14    7    8 ar
    15    7   31 1
    16    8    9 ar
    17    8   32 1
    18    9   10 1
    19   10   11 1
    20   11   33 1
    21   11   34 1
    22   11   35 1
    23   12   13 am
    24   12   36 1
    25   13   14 2
    26   13   15 1
    27   15   20 ar
    28   15   16 ar
    29   16   17 ar
    30   16   37 1
    31   17   18 ar
    32   17   38 1
    33   18   19 ar
    34   18   25 1
    35   19   20 ar
    36   19   21 1
    37   20   39 1
    38   21   22 2
    39   21   23 2
    40   21   24 1
    41   24   40 1
    42   24   41 1
@<TRIPOS>MOLECULE
ZINC00638480
   41    42     0     0     0
SMALL
USER_CHARGES

@<TRIPOS>ATOM
      1 C1         -0.0127    1.0858    0.0080 C.3       1 <0>        -0.2205
      2 C2         -0.7288    1.5792    1.2668 C.3       1 <0>         0.0867
      3 H1         -1.7514    1.2020    1.2746 H         1 <0>         0.1410
      4 C3         -0.7493    3.0861    1.2751 C.ar      1 <0>        -0.1173
      5 C4          0.2244    3.7870    1.9605 C.ar      1 <0>        -0.0969
      6 C5          0.2086    5.1693    1.9649 C.ar      1 <0>        -0.1608
      7 C6         -0.7866    5.8540    1.2917 C.ar      1 <0>        -0.0873
      8 C7         -1.7652    5.1578    0.6094 C.ar      1 <0>        -0.2127
      9 C8         -1.7489    3.7705    0.5995 C.ar      1 <0>         0.1069
     10 O1         -2.7104    3.0832   -0.0715 O.3       1 <0>        -0.2090
     11 C9         -3.7082    3.8535   -0.7446 C.3       1 <0>        -0.0633
     12 N1         -0.0203    1.0939    2.4537 N.am      1 <0>        -0.3863
     13 C10        -0.2848   -0.1344    2.9411 C.2       1 <0>         0.3454
     14 O2         -1.1113   -0.8397    2.3960 O.2       1 <0>        -0.3566
     15 C11         0.4300   -0.6240    4.1384 C.ar      1 <0>        -0.1460
     16 C12         1.3840    0.1816    4.7634 C.ar      1 <0>        -0.0476
     17 C13         2.0428   -0.2780    5.8840 C.ar      1 <0>        -0.1518
     18 C14         1.7691   -1.5412    6.3825 C.ar      1 <0>         0.0507
     19 C15         0.8283   -2.3472    5.7633 C.ar      1 <0>        -0.7668
     20 C16         0.1581   -1.8958    4.6456 C.ar      1 <0>         0.0406
     21 S1          0.4866   -3.9522    6.4050 S.o2      1 <0>         2.7626
     22 O3          0.2778   -3.7951    7.8017 O.2       1 <0>        -0.9017
     23 O4         -0.4883   -4.5325    5.5494 O.2       1 <0>        -0.9060
     24 N2          1.8654   -4.8528    6.2309 N.pl3     1 <0>        -0.9248
     25 Cl1         2.6082   -2.1161    7.7893 Cl        1 <0>         0.0096
     26 H2          0.0021   -0.0041    0.0020 H         1 <0>         0.0940
     27 H3          1.0099    1.4631    0.0003 H         1 <0>         0.0712
     28 H4         -0.5399    1.4469   -0.8751 H         1 <0>         0.0918
     29 H5          1.0005    3.2546    2.4901 H         1 <0>         0.1227
     30 H6          0.9725    5.7155    2.4983 H         1 <0>         0.1315
     31 H7         -0.7988    6.9339    1.2997 H         1 <0>         0.1328
     32 H8         -2.5426    5.6930    0.0844 H         1 <0>         0.1386
     33 H9         -4.2404    4.4707   -0.0207 H         1 <0>         0.0700
     34 H10        -3.2330    4.4936   -1.4879 H         1 <0>         0.0684
     35 H11        -4.4123    3.1839   -1.2385 H         1 <0>         0.1126
     36 H12         0.6392    1.6567    2.8887 H         1 <0>         0.2218
     37 H13         1.6020    1.1645    4.3727 H         1 <0>         0.1352
     38 H14         2.7774    0.3460    6.3711 H         1 <0>         0.1522
     39 H15        -0.5753   -2.5252    4.1635 H         1 <0>         0.1914
     40 H16         2.0632   -5.5635    6.8608 H         1 <0>         0.2465
     41 H17         2.4751   -4.6697    5.4991 H         1 <0>         0.2313
@<TRIPOS>BOND
     1    1    2 1
     2    1   26 1
     3    1   27 1
     4    1   28 1
     5    2    3 1
     6    2    4 1
     7    2   12 1
     8    4    9 ar
     9    4    5 ar
    10    5    6 ar
    11    5   29 1
    12    6    7 ar
    13    6   30 1
    14    7    8 ar
    15    7   31 1
    16    8    9 ar
    17    8   32 1
    18    9   10 1
    19   10   11 1
    20   11   33 1
    21   11   34 1
    22   11   35 1
    23   12   13 am
    24   12   36 1
    25   13   14 2
    26   13   15 1
    27   15   20 ar
    28   15   16 ar
    29   16   17 ar
    30   16   37 1
    31   17   18 ar
    32   17   38 1
    33   18   19 ar
    34   18   25 1
    35   19   20 ar
    36   19   21 1
    37   20   39 1
    38   21   22 2
    39   21   23 2
    40   21   24 1
    41   24   40 1
    42   24   41 1
@<TRIPOS>MOLECULE
ZINC00645252
   48    50     0     0     0
SMALL
USER_CHARGES

@<TRIPOS>ATOM
      1 C1         -1.0575    1.7515    0.6098 C.ar      1 <0>        -0.0988
      2 C2         -1.0733    3.1330    0.6234 C.ar      1 <0>        -0.1698
      3 C3         -0.0487    3.8461    0.0140 C.ar      1 <0>         0.0709
      4 C4          0.9908    3.1688   -0.6086 C.ar      1 <0>        -0.1535
      5 C5          1.0059    1.7831   -0.6151 C.ar      1 <0>         0.0873
      6 C6         -0.0233    1.0758   -0.0091 C.ar      1 <0>        -0.1681
      7 O1          2.0250    1.1171   -1.2189 O.3       1 <0>        -0.2862
      8 N1         -0.0643    5.2443    0.0281 N.am      1 <0>        -0.3219
      9 C7          1.0921    5.9302    0.1216 C.2       1 <0>         0.3407
     10 O2          2.1533    5.3372    0.1088 O.2       1 <0>        -0.3403
     11 C8          1.0702    7.4035    0.2396 C.ar      1 <0>        -0.0769
     12 C9         -0.1464    8.0879    0.2488 C.ar      1 <0>        -0.1303
     13 C10        -0.1601    9.4624    0.3659 C.ar      1 <0>        -0.0368
     14 C11         1.0290   10.1635    0.4612 C.ar      1 <0>        -0.7374
     15 C12         2.2385    9.4917    0.4465 C.ar      1 <0>        -0.0384
     16 C13         2.2661    8.1169    0.3366 C.ar      1 <0>        -0.0886
     17 S1          1.0027   11.9196    0.6026 S.o2      1 <0>         2.7558
     18 O3         -0.2659   12.2648    1.1418 O.2       1 <0>        -0.9157
     19 O4          2.2232   12.2952    1.2259 O.2       1 <0>        -0.9099
     20 N2          1.0472   12.5352   -0.9341 N.pl3     1 <0>        -0.8290
     21 C14         2.3336   12.8138   -1.5322 C.3       1 <0>         0.0029
     22 C15         2.7697   14.2547   -1.1933 C.3       1 <0>        -0.1781
     23 C16         1.9439   15.2241   -1.9296 C.3       1 <0>        -0.1580
     24 C17         0.4605   15.1834   -1.5752 C.3       1 <0>        -0.1532
     25 C18        -0.2213   14.1188   -2.3988 C.3       1 <0>        -0.1659
     26 C19        -0.2284   12.7825   -1.6345 C.3       1 <0>        -0.0090
     27 H1         -1.8549    1.1988    1.0842 H         1 <0>         0.1351
     28 H2         -1.8824    3.6587    1.1085 H         1 <0>         0.1306
     29 H3          1.7888    3.7208   -1.0829 H         1 <0>         0.1738
     30 H4         -0.0134   -0.0041   -0.0174 H         1 <0>         0.1404
     31 H5          1.8707    0.9263   -2.1543 H         1 <0>         0.2267
     32 H6         -0.9074    5.7206   -0.0295 H         1 <0>         0.2349
     33 H7         -1.0750    7.5422    0.1692 H         1 <0>         0.1301
     34 H8         -1.1008    9.9928    0.3787 H         1 <0>         0.1524
     35 H9          3.1630   10.0449    0.5217 H         1 <0>         0.1563
     36 H10         3.2108    7.5936    0.3259 H         1 <0>         0.1648
     37 H11         3.0738   12.1146   -1.1431 H         1 <0>         0.0892
     38 H12         2.2628   12.7019   -2.6141 H         1 <0>         0.0908
     39 H13         3.8159   14.3903   -1.4674 H         1 <0>         0.0901
     40 H14         2.6552   14.4230   -0.1225 H         1 <0>         0.1036
     41 H15         2.0503   15.0293   -2.9968 H         1 <0>         0.0746
     42 H16         2.3219   16.2253   -1.7224 H         1 <0>         0.0802
     43 H17         0.0091   16.1524   -1.7879 H         1 <0>         0.0827
     44 H18         0.3455   14.9531   -0.5161 H         1 <0>         0.0922
     45 H19         0.3125   13.9935   -3.3409 H         1 <0>         0.0847
     46 H20        -1.2476   14.4241   -2.6026 H         1 <0>         0.0896
     47 H21        -0.4073   11.9717   -2.3407 H         1 <0>         0.0714
     48 H22        -1.0364   12.7989   -0.9030 H         1 <0>         0.1140
@<TRIPOS>BOND
     1    1    6 ar
     2    1    2 ar
     3    1   27 1
     4    2    3 ar
     5    2   28 1
     6    3    4 ar
     7    3    8 1
     8    4    5 ar
     9    4   29 1
    10    5    6 ar
    11    5    7 1
    12    6   30 1
    13    7   31 1
    14    8    9 am
    15    8   32 1
    16    9   10 2
    17    9   11 1
    18   11   16 ar
    19   11   12 ar
    20   12   13 ar
    21   12   33 1
    22   13   14 ar
    23   13   34 1
    24   14   15 ar
    25   14   17 1
    26   15   16 ar
    27   15   35 1
    28   16   36 1
    29   17   18 2
    30   17   19 2
    31   17   20 1
    32   20   26 1
    33   20   21 1
    34   21   22 1
    35   21   37 1
    36   21   38 1
    37   22   23 1
    38   22   39 1
    39   22   40 1
    40   23   24 1
    41   23   41 1
    42   23   42 1
    43   24   25 1
    44   24   43 1
    45   24   44 1
    46   25   26 1
    47   25   45 1
    48   25   46 1
    49   26   47 1
    50   26   48 1
@<TRIPOS>MOLECULE
ZINC00645784
   44    47     0     0     0
SMALL
USER_CHARGES

@<TRIPOS>ATOM
      1 C1          0.8555   -0.5067   -0.3422 C.3       1 <0>        -0.2407
      2 C2         -0.5016    0.1410   -0.2428 C.2       1 <0>         0.3018
      3 O1         -1.4846   -0.4464   -0.6424 O.2       1 <0>        -0.3457
      4 N1         -0.6229    1.3729    0.2902 N.am      1 <0>        -0.3339
      5 C3         -1.8673    2.0127    0.2973 C.ar      1 <0>         0.1186
      6 C4         -1.9427    3.3898    0.1344 C.ar      1 <0>        -0.1862
      7 C5         -3.1729    4.0175    0.1352 C.ar      1 <0>        -0.0052
      8 C6         -4.3280    3.2778    0.3108 C.ar      1 <0>        -0.7774
      9 C7         -4.2560    1.9072    0.4794 C.ar      1 <0>        -0.0081
     10 C8         -3.0292    1.2727    0.4729 C.ar      1 <0>        -0.1524
     11 S1         -5.8951    4.0834    0.3190 S.o2      1 <0>         2.7637
     12 O2         -5.7319    5.2964   -0.4028 O.2       1 <0>        -0.9146
     13 O3         -6.8574    3.1034   -0.0456 O.2       1 <0>        -0.9107
     14 N2         -6.2202    4.5056    1.8869 N.pl3     1 <0>        -0.8037
     15 C9         -5.3612    5.3641    2.5696 C.ar      1 <0>         0.0708
     16 C10        -4.7274    6.4006    1.9098 C.ar      1 <0>        -0.1810
     17 C11        -3.8618    7.2758    2.5651 C.ar      1 <0>        -0.0908
     18 C12        -3.6118    7.1329    3.8970 C.ar      1 <0>        -0.0845
     19 C13        -4.2418    6.0955    4.5770 C.ar      1 <0>        -0.0450
     20 C14        -5.1238    5.1980    3.9503 C.ar      1 <0>        -0.0409
     21 C15        -5.6969    4.1851    4.7336 C.ar      1 <0>        -0.1181
     22 C16        -5.3853    4.1234    6.0615 C.ar      1 <0>        -0.1187
     23 C17        -4.5109    5.0297    6.6653 C.ar      1 <0>        -0.1124
     24 C18        -3.9327    6.0203    5.9318 C.ar      1 <0>        -0.0663
     25 C19        -2.9693    7.1408    6.2384 C.3       1 <0>        -0.1161
     26 C20        -2.7573    7.8747    4.8965 C.3       1 <0>        -0.1140
     27 H1          1.2837   -0.6079    0.6551 H         1 <0>         0.0964
     28 H2          0.7552   -1.4925   -0.7963 H         1 <0>         0.1221
     29 H3          1.5091    0.1118   -0.9572 H         1 <0>         0.0988
     30 H4          0.1516    1.8144    0.6724 H         1 <0>         0.2356
     31 H5         -1.0405    3.9687    0.0023 H         1 <0>         0.1357
     32 H6         -3.2326    5.0877    0.0030 H         1 <0>         0.1517
     33 H7         -5.1599    1.3322    0.6159 H         1 <0>         0.1532
     34 H8         -2.9736    0.2021    0.6040 H         1 <0>         0.1714
     35 H9         -7.0088    4.1553    2.3300 H         1 <0>         0.2545
     36 H10        -4.9080    6.5365    0.8537 H         1 <0>         0.1798
     37 H11        -3.3864    8.0730    2.0129 H         1 <0>         0.1343
     38 H12        -6.3765    3.4694    4.2949 H         1 <0>         0.1302
     39 H13        -5.8301    3.3466    6.6659 H         1 <0>         0.1290
     40 H14        -4.2920    4.9442    7.7194 H         1 <0>         0.1298
     41 H15        -2.0241    6.7375    6.6018 H         1 <0>         0.0967
     42 H16        -3.4002    7.8184    6.9756 H         1 <0>         0.0986
     43 H17        -1.7084    7.8304    4.6033 H         1 <0>         0.0953
     44 H18        -3.0842    8.9114    4.9772 H         1 <0>         0.0984
@<TRIPOS>BOND
     1    1    2 1
     2    1   27 1
     3    1   28 1
     4    1   29 1
     5    2    3 2
     6    2    4 am
     7    4    5 1
     8    4   30 1
     9    5   10 ar
    10    5    6 ar
    11    6    7 ar
    12    6   31 1
    13    7    8 ar
    14    7   32 1
    15    8    9 ar
    16    8   11 1
    17    9   10 ar
    18    9   33 1
    19   10   34 1
    20   11   12 2
    21   11   13 2
    22   11   14 1
    23   14   15 1
    24   14   35 1
    25   15   20 ar
    26   15   16 ar
    27   16   17 ar
    28   16   36 1
    29   17   18 ar
    30   17   37 1
    31   18   26 1
    32   18   19 ar
    33   19   24 ar
    34   19   20 ar
    35   20   21 ar
    36   21   22 ar
    37   21   38 1
    38   22   23 ar
    39   22   39 1
    40   23   24 ar
    41   23   40 1
    42   24   25 1
    43   25   26 1
    44   25   41 1
    45   25   42 1
    46   26   43 1
    47   26   44 1
@<TRIPOS>MOLECULE
ZINC00656938
   41    44     0     0     0
SMALL
USER_CHARGES

@<TRIPOS>ATOM
      1 C1          1.0427   -1.9232    1.1265 C.3       1 <0>        -0.1762
      2 C2          1.1216   -0.5570    0.4953 C.ar      1 <0>        -0.0551
      3 C3          0.0042   -0.0093   -0.1083 C.ar      1 <0>        -0.1375
      4 C4          0.0722    1.2439   -0.6885 C.ar      1 <0>        -0.1071
      5 C5          1.2572    1.9531   -0.6672 C.ar      1 <0>        -0.1284
      6 C6          2.3815    1.4059   -0.0622 C.ar      1 <0>         0.0594
      7 C7          2.3096    0.1463    0.5199 C.ar      1 <0>        -0.1110
      8 C8          3.5266   -0.4513    1.1778 C.3       1 <0>        -0.1779
      9 N1          3.5818    2.1206   -0.0388 N.pl3     1 <0>        -0.2651
     10 C9          3.5666    3.4991   -0.1244 C.ar      1 <0>         0.1322
     11 C10         4.8327    4.2342   -0.2336 C.ar      1 <0>         0.1335
     12 N2          4.8415    5.5480   -0.3163 N.ar      1 <0>        -0.1590
     13 C11         3.6826    6.2193   -0.3006 C.ar      1 <0>        -0.1055
     14 C12         2.4041    5.4769   -0.1903 C.ar      1 <0>        -0.1052
     15 N3          2.4168    4.1398   -0.1126 N.ar      1 <0>        -0.1524
     16 N4          1.5100    6.4365   -0.2051 N.2       1 <0>        -0.0298
     17 O1          2.0762    7.5056   -0.3000 O.3       1 <0>         0.1451
     18 N5          3.2878    7.4688   -0.3584 N.2       1 <0>        -0.0297
     19 N6          6.0267    3.5404   -0.2492 N.pl3     1 <0>        -0.2723
     20 C13         7.2396    4.2362   -0.2561 C.ar      1 <0>         0.0375
     21 C14         7.3488    5.4369   -0.9460 C.ar      1 <0>        -0.0908
     22 C15         8.5463    6.1247   -0.9474 C.ar      1 <0>        -0.1489
     23 C16         9.6407    5.6131   -0.2705 C.ar      1 <0>         0.0896
     24 C17         9.5357    4.4136    0.4136 C.ar      1 <0>        -0.1515
     25 C18         8.3387    3.7249    0.4221 C.ar      1 <0>        -0.1335
     26 F1         10.8126    6.2853   -0.2772 F         1 <0>        -0.1038
     27 H1          1.2962   -2.6811    0.3852 H         1 <0>         0.0869
     28 H2          1.7442   -1.9801    1.9588 H         1 <0>         0.0836
     29 H3          0.0305   -2.0967    1.4919 H         1 <0>         0.0853
     30 H4         -0.9238   -0.5616   -0.1261 H         1 <0>         0.1328
     31 H5         -0.8010    1.6668   -1.1629 H         1 <0>         0.1375
     32 H6          1.3098    2.9318   -1.1210 H         1 <0>         0.1725
     33 H7          4.0924   -1.0242    0.4431 H         1 <0>         0.0814
     34 H8          4.1527    0.3468    1.5767 H         1 <0>         0.0690
     35 H9          3.2149   -1.1087    1.9895 H         1 <0>         0.0968
     36 H10         4.4259    1.6487    0.0376 H         1 <0>         0.2435
     37 H11         6.0239    2.5704   -0.2554 H         1 <0>         0.2433
     38 H12         6.4967    5.8342   -1.4775 H         1 <0>         0.1750
     39 H13         8.6306    7.0603   -1.4803 H         1 <0>         0.1533
     40 H14        10.3904    4.0166    0.9411 H         1 <0>         0.1486
     41 H15         8.2571    2.7897    0.9561 H         1 <0>         0.1337
@<TRIPOS>BOND
     1    1    2 1
     2    1   27 1
     3    1   28 1
     4    1   29 1
     5    2    7 ar
     6    2    3 ar
     7    3    4 ar
     8    3   30 1
     9    4    5 ar
    10    4   31 1
    11    5    6 ar
    12    5   32 1
    13    6    7 ar
    14    6    9 1
    15    7    8 1
    16    8   33 1
    17    8   34 1
    18    8   35 1
    19    9   10 1
    20    9   36 1
    21   10   15 ar
    22   10   11 ar
    23   11   12 ar
    24   11   19 1
    25   12   13 ar
    26   13   18 2
    27   13   14 ar
    28   14   15 ar
    29   14   16 2
    30   16   17 1
    31   17   18 1
    32   19   20 1
    33   19   37 1
    34   20   25 ar
    35   20   21 ar
    36   21   22 ar
    37   21   38 1
    38   22   23 ar
    39   22   39 1
    40   23   24 ar
    41   23   26 1
    42   24   25 ar
    43   24   40 1
    44   25   41 1
@<TRIPOS>MOLECULE
ZINC00676471
   44    46     0     0     0
SMALL
USER_CHARGES

@<TRIPOS>ATOM
      1 C1         -4.1897   -4.2045   -1.3040 C.2       1 <0>        -0.1972
      2 C2         -2.8894   -3.7722   -1.3842 C.2       1 <0>        -0.0832
      3 C3         -2.5802   -2.5801   -0.7477 C.2       1 <0>        -0.3546
      4 S1         -4.1556   -2.1183   -0.0492 S.3       1 <0>         0.3869
      5 C4         -5.0957   -3.4592   -0.6183 C.2       1 <0>        -0.3076
      6 C5         -1.2933   -1.8840   -0.6647 C.2       1 <0>         0.3962
      7 O1         -0.3102   -2.3559   -1.2052 O.2       1 <0>        -0.3415
      8 N1         -1.1984   -0.7212    0.0101 N.am      1 <0>        -0.3245
      9 C6          0.0045   -0.0081    0.0086 C.ar      1 <0>         0.1158
     10 C7         -0.0098    1.3808    0.0135 C.ar      1 <0>        -0.1863
     11 C8          1.1800    2.0821    0.0124 C.ar      1 <0>        -0.0142
     12 C9          2.3846    1.4030    0.0069 C.ar      1 <0>        -0.7773
     13 C10         2.4023    0.0202    0.0016 C.ar      1 <0>        -0.0101
     14 C11         1.2161   -0.6871    0.0026 C.ar      1 <0>        -0.1521
     15 S2          3.9003    2.3015    0.0062 S.o2      1 <0>         2.7629
     16 O2          3.6161    3.5778    0.5627 O.2       1 <0>        -0.9178
     17 O3          4.8862    1.4353    0.5509 O.2       1 <0>        -0.9187
     18 N2          4.3170    2.5573   -1.5760 N.pl3     1 <0>        -0.8772
     19 C12         3.4740    3.3989   -2.4287 C.3       1 <0>         0.0447
     20 C13         2.4972    2.5172   -3.2094 C.3       1 <0>        -0.1844
     21 C14         1.6167    3.3962   -4.1000 C.3       1 <0>        -0.1561
     22 C15         2.4977    4.1732   -5.0803 C.3       1 <0>        -0.1616
     23 C16         3.4745    5.0549   -4.2996 C.3       1 <0>        -0.1575
     24 C17         4.3550    4.1760   -3.4090 C.3       1 <0>        -0.1620
     25 H1         -4.4892   -5.1265   -1.7801 H         1 <0>         0.1517
     26 H2         -2.1399   -4.3362   -1.9194 H         1 <0>         0.1673
     27 H3         -6.1459   -3.6565   -0.4621 H         1 <0>         0.1923
     28 H4         -1.9645   -0.3790    0.4968 H         1 <0>         0.2388
     29 H5         -0.9503    1.9118    0.0136 H         1 <0>         0.1362
     30 H6          1.1696    3.1620    0.0159 H         1 <0>         0.1508
     31 H7          3.3448   -0.5071   -0.0031 H         1 <0>         0.1550
     32 H8          1.2306   -1.7670   -0.0009 H         1 <0>         0.1722
     33 H9          5.1194    2.1499   -1.9381 H         1 <0>         0.2441
     34 H10         2.9149    4.0997   -1.8086 H         1 <0>         0.1105
     35 H11         3.0563    1.8165   -3.8295 H         1 <0>         0.0910
     36 H12         1.8696    1.9637   -2.5110 H         1 <0>         0.0897
     37 H13         1.0577    4.0970   -3.4799 H         1 <0>         0.0805
     38 H14         0.9209    2.7681   -4.6562 H         1 <0>         0.0851
     39 H15         1.8705    4.7994   -5.7147 H         1 <0>         0.0817
     40 H16         3.0568    3.4725   -5.7004 H         1 <0>         0.0834
     41 H17         2.9155    5.7557   -3.6795 H         1 <0>         0.0848
     42 H18         4.1021    5.6085   -4.9979 H         1 <0>         0.0846
     43 H19         5.0508    4.8041   -2.8528 H         1 <0>         0.0926
     44 H20         4.9140    3.4752   -4.0291 H         1 <0>         0.0850
@<TRIPOS>BOND
     1    1    5 2
     2    1    2 1
     3    1   25 1
     4    2    3 2
     5    2   26 1
     6    3    4 1
     7    3    6 1
     8    4    5 1
     9    5   27 1
    10    6    7 2
    11    6    8 am
    12    8    9 1
    13    8   28 1
    14    9   14 ar
    15    9   10 ar
    16   10   11 ar
    17   10   29 1
    18   11   12 ar
    19   11   30 1
    20   12   13 ar
    21   12   15 1
    22   13   14 ar
    23   13   31 1
    24   14   32 1
    25   15   16 2
    26   15   17 2
    27   15   18 1
    28   18   19 1
    29   18   33 1
    30   19   24 1
    31   19   20 1
    32   19   34 1
    33   20   21 1
    34   20   35 1
    35   20   36 1
    36   21   22 1
    37   21   37 1
    38   21   38 1
    39   22   23 1
    40   22   39 1
    41   22   40 1
    42   23   24 1
    43   23   41 1
    44   23   42 1
    45   24   43 1
    46   24   44 1
@<TRIPOS>MOLECULE
ZINC00680571
   44    46     0     0     0
SMALL
USER_CHARGES

@<TRIPOS>ATOM
      1 C1         -8.4998    0.6322    0.0444 C.3       1 <0>        -0.1473
      2 C2         -6.9954    0.5432    0.0371 C.2       1 <0>        -0.0710
      3 C3         -6.1494    1.5900    0.0394 C.2       1 <0>        -0.1803
      4 C4         -4.7938    1.0324    0.0304 C.2       1 <0>        -0.1538
      5 C5         -4.9387   -0.3260    0.0182 C.2       1 <0>        -0.0012
      6 N1         -6.2683   -0.6125    0.0274 N.pl3     1 <0>        -0.0720
      7 C6         -6.8127   -1.9053    0.0220 C.ar      1 <0>        -0.0081
      8 C7         -6.6044   -2.7510    1.1032 C.ar      1 <0>        -0.0794
      9 C8         -7.1449   -4.0216    1.0997 C.ar      1 <0>        -0.2165
     10 C9         -7.8872   -4.4569    0.0114 C.ar      1 <0>         0.1039
     11 C10        -8.0908   -3.6142   -1.0717 C.ar      1 <0>        -0.1542
     12 C11        -7.5552   -2.3416   -1.0669 C.ar      1 <0>        -0.0848
     13 O1         -8.4148   -5.7098    0.0062 O.3       1 <0>        -0.2085
     14 C12        -8.1656   -6.5235    1.1543 C.3       1 <0>        -0.0644
     15 C13        -3.8182   -1.3336    0.0008 C.3       1 <0>        -0.1590
     16 C14        -3.5276    1.7866    0.0285 C.2       1 <0>        -0.0399
     17 N2         -2.3943    1.1527    0.0197 N.2       1 <0>        -0.0376
     18 N3         -1.1906    1.8696    0.0179 N.am      1 <0>        -0.3138
     19 C15        -0.0144    1.2117    0.0087 C.2       1 <0>         0.4171
     20 O2          0.0021   -0.0041    0.0020 O.2       1 <0>        -0.3369
     21 C16         1.2574    1.9692    0.0006 C.2       1 <0>        -0.2528
     22 C17         2.6448    1.4512   -0.0154 C.2       1 <0>         0.0706
     23 N4          3.3603    2.5522   -0.0171 N.2       1 <0>        -0.1458
     24 O3          2.6246    3.5108   -0.0054 O.3       1 <0>         0.1289
     25 N5          1.4398    3.2723    0.0000 N.2       1 <0>        -0.0260
     26 N6          3.0795    0.1330   -0.0259 N.pl3     1 <0>        -0.3651
     27 H1         -8.8672    0.6592   -0.9814 H         1 <0>         0.0846
     28 H2         -8.9127   -0.2376    0.5554 H         1 <0>         0.0857
     29 H3         -8.8075    1.5392    0.5647 H         1 <0>         0.0924
     30 H4         -6.4171    2.6363    0.0464 H         1 <0>         0.1523
     31 H5         -6.0232   -2.4136    1.9486 H         1 <0>         0.1468
     32 H6         -6.9863   -4.6781    1.9425 H         1 <0>         0.1425
     33 H7         -8.6687   -3.9536   -1.9186 H         1 <0>         0.1509
     34 H8         -7.7135   -1.6858   -1.9103 H         1 <0>         0.1487
     35 H9         -8.5745   -6.0372    2.0399 H         1 <0>         0.0697
     36 H10        -8.6411   -7.4952    1.0211 H         1 <0>         0.1118
     37 H11        -7.0910   -6.6587    1.2775 H         1 <0>         0.0705
     38 H12        -3.5414   -1.5868    1.0242 H         1 <0>         0.0926
     39 H13        -4.1465   -2.2331   -0.5200 H         1 <0>         0.0783
     40 H14        -2.9562   -0.9096   -0.5144 H         1 <0>         0.1346
     41 H15        -3.5422    2.8665    0.0344 H         1 <0>         0.1180
     42 H16        -1.2038    2.8395    0.0232 H         1 <0>         0.2193
     43 H17         2.4336   -0.5907   -0.0231 H         1 <0>         0.2604
     44 H18         4.0291   -0.0645   -0.0362 H         1 <0>         0.2391
@<TRIPOS>BOND
     1    1    2 1
     2    1   27 1
     3    1   28 1
     4    1   29 1
     5    2    6 1
     6    2    3 2
     7    3    4 1
     8    3   30 1
     9    4    5 2
    10    4   16 1
    11    5    6 1
    12    5   15 1
    13    6    7 1
    14    7   12 ar
    15    7    8 ar
    16    8    9 ar
    17    8   31 1
    18    9   10 ar
    19    9   32 1
    20   10   11 ar
    21   10   13 1
    22   11   12 ar
    23   11   33 1
    24   12   34 1
    25   13   14 1
    26   14   35 1
    27   14   36 1
    28   14   37 1
    29   15   38 1
    30   15   39 1
    31   15   40 1
    32   16   17 2
    33   16   41 1
    34   17   18 1
    35   18   19 am
    36   18   42 1
    37   19   20 2
    38   19   21 1
    39   21   25 2
    40   21   22 1
    41   22   23 2
    42   22   26 1
    43   23   24 1
    44   24   25 1
    45   26   43 1
    46   26   44 1
@<TRIPOS>MOLECULE
ZINC00682264
   43    45     0     0     0
SMALL
USER_CHARGES

@<TRIPOS>ATOM
      1 C1          3.1570  -10.2493    2.8050 C.3       1 <0>        -0.0614
      2 O1          3.3759   -8.8373    2.7899 O.3       1 <0>        -0.2138
      3 C2          3.4192   -8.2323    1.5728 C.ar      1 <0>         0.0613
      4 C3          3.2539   -8.9836    0.4185 C.ar      1 <0>        -0.1771
      5 C4          3.2980   -8.3691   -0.8176 C.ar      1 <0>        -0.1793
      6 C5          3.5014   -6.9997   -0.9046 C.ar      1 <0>         0.0800
      7 C6          3.6719   -6.2494    0.2492 C.ar      1 <0>        -0.0586
      8 C7          3.6283   -6.8641    1.4856 C.ar      1 <0>        -0.1096
      9 C8          3.8985   -4.7626    0.1545 C.3       1 <0>        -0.1332
     10 C9          2.5704   -4.0571    0.0579 C.2       1 <0>         0.3073
     11 O2          1.5411   -4.6985    0.0653 O.2       1 <0>        -0.3485
     12 N1          2.5263   -2.7134   -0.0366 N.am      1 <0>        -0.3181
     13 C10         1.3003   -2.0533   -0.0107 C.ar      1 <0>         0.1337
     14 C11         0.1995   -2.6399    0.6098 C.ar      1 <0>        -0.1317
     15 C12        -1.0172   -1.9891    0.6372 C.ar      1 <0>        -0.0944
     16 C13        -1.1657   -0.7427    0.0489 C.ar      1 <0>        -0.1005
     17 C14        -0.0832   -0.1413   -0.5738 C.ar      1 <0>        -0.0807
     18 C15         1.1638   -0.7996   -0.6062 C.ar      1 <0>        -0.1601
     19 C16         2.2968   -0.1334   -1.2761 C.2       1 <0>         0.3679
     20 O3          3.3848   -0.6739   -1.3220 O.2       1 <0>        -0.3846
     21 N2          2.1168    1.0783   -1.8370 N.am      1 <0>        -0.2712
     22 H1          2.8900    1.5230   -2.2891 H         1 <0>         0.2666
     23 N3          0.8840    1.7316   -1.8062 N.am      1 <0>        -0.2780
     24 H2          0.8003    2.6303   -2.2368 H         1 <0>         0.2670
     25 C17        -0.1968    1.1874   -1.2135 C.2       1 <0>         0.3545
     26 O4         -1.2573    1.7812   -1.2089 O.2       1 <0>        -0.3491
     27 O5          3.5388   -6.3937   -2.1214 O.3       1 <0>        -0.2129
     28 C18         3.3556   -7.2276   -3.2673 C.3       1 <0>        -0.0610
     29 H3          2.2010  -10.4739    2.3321 H         1 <0>         0.0677
     30 H4          3.9583  -10.7471    2.2589 H         1 <0>         0.0652
     31 H5          3.1448  -10.6041    3.8356 H         1 <0>         0.1068
     32 H6          3.0911  -10.0491    0.4864 H         1 <0>         0.1352
     33 H7          3.1696   -8.9541   -1.7163 H         1 <0>         0.1365
     34 H8          3.7566   -6.2791    2.3844 H         1 <0>         0.1459
     35 H9          4.4927   -4.5413   -0.7321 H         1 <0>         0.1274
     36 H10         4.4289   -4.4186    1.0424 H         1 <0>         0.1075
     37 H11         3.3486   -2.2060   -0.1227 H         1 <0>         0.2668
     38 H12         0.2989   -3.6107    1.0724 H         1 <0>         0.1826
     39 H13        -1.8621   -2.4556    1.1218 H         1 <0>         0.1433
     40 H14        -2.1220   -0.2415    0.0761 H         1 <0>         0.1581
     41 H15         3.4079   -6.6202   -4.1708 H         1 <0>         0.1075
     42 H16         4.1381   -7.9860   -3.2935 H         1 <0>         0.0639
     43 H17         2.3811   -7.7128   -3.2115 H         1 <0>         0.0709
@<TRIPOS>BOND
     1    1    2 1
     2    1   29 1
     3    1   30 1
     4    1   31 1
     5    2    3 1
     6    3    8 ar
     7    3    4 ar
     8    4    5 ar
     9    4   32 1
    10    5    6 ar
    11    5   33 1
    12    6    7 ar
    13    6   27 1
    14    7    8 ar
    15    7    9 1
    16    8   34 1
    17    9   10 1
    18    9   35 1
    19    9   36 1
    20   10   11 2
    21   10   12 am
    22   12   13 1
    23   12   37 1
    24   13   18 ar
    25   13   14 ar
    26   14   15 ar
    27   14   38 1
    28   15   16 ar
    29   15   39 1
    30   16   17 ar
    31   16   40 1
    32   17   25 1
    33   17   18 ar
    34   18   19 1
    35   19   20 2
    36   19   21 am
    37   21   22 1
    38   21   23 1
    39   23   24 1
    40   23   25 am
    41   25   26 2
    42   27   28 1
    43   28   41 1
    44   28   42 1
    45   28   43 1
@<TRIPOS>MOLECULE
ZINC00685711
   45    48     0     0     0
SMALL
USER_CHARGES

@<TRIPOS>ATOM
      1 C1         -3.0730    2.5641    3.2640 C.3       1 <0>        -0.1579
      2 C2         -2.1566    2.5827    2.0678 C.2       1 <0>         0.1376
      3 C3         -2.2559    1.7121    1.0454 C.2       1 <0>        -0.2602
      4 C4         -1.2291    2.0807    0.0184 C.3       1 <0>        -0.0229
      5 C5         -1.7590    2.4267   -1.3379 C.2       1 <0>        -0.2678
      6 C6         -1.7768    3.7871   -1.4300 C.2       1 <0>         0.2717
      7 O1         -1.3562    4.3920   -0.2943 O.3       1 <0>        -0.1930
      8 C7         -0.7003    3.4528    0.5444 C.3       1 <0>         0.2362
      9 O2         -1.1564    3.4718    1.9148 O.3       1 <0>        -0.1573
     10 C8          0.7853    3.3965    0.3847 C.ar      1 <0>        -0.0659
     11 C9          1.7528    4.3783    0.5013 C.ar      1 <0>        -0.0870
     12 C10         3.0745    4.1001    0.2092 C.ar      1 <0>        -0.1094
     13 C11         3.4469    2.8333   -0.2062 C.ar      1 <0>        -0.1189
     14 C12         2.5014    1.8371   -0.3114 C.ar      1 <0>        -0.0670
     15 C13         1.1627    2.1032    0.0023 C.ar      1 <0>        -0.1306
     16 C14        -0.0144    1.2083    0.0087 C.2       1 <0>         0.2965
     17 O3          0.0021   -0.0041    0.0020 O.2       1 <0>        -0.2248
     18 N1         -2.1807    4.4675   -2.5510 N.pl3     1 <0>        -0.3690
     19 C15        -2.1702    1.5014   -2.3505 C.1       1 <0>        -0.0338
     20 N2         -2.4964    0.7673   -3.1538 N.1       1 <0>        -0.0675
     21 C16        -3.1719    0.6367    0.9541 C.2       1 <0>         0.3933
     22 O4         -3.9646    0.4347    1.8547 O.2       1 <0>        -0.3886
     23 O5         -3.1658   -0.1643   -0.1317 O.3       1 <0>        -0.2413
     24 C17        -4.1176   -1.2300   -0.1570 C.3       1 <0>         0.0007
     25 C18        -3.9604   -2.0233   -1.4558 C.3       1 <0>        -0.1189
     26 C19        -2.5902   -2.7038   -1.4751 C.3       1 <0>        -0.2058
     27 C20        -5.0586   -3.0853   -1.5407 C.3       1 <0>        -0.2055
     28 H1         -2.7921    3.3637    3.9494 H         1 <0>         0.0907
     29 H2         -4.1019    2.7117    2.9357 H         1 <0>         0.1241
     30 H3         -2.9879    1.6035    3.7720 H         1 <0>         0.1279
     31 H4          1.4729    5.3703    0.8236 H         1 <0>         0.1440
     32 H5          3.8205    4.8750    0.3051 H         1 <0>         0.1403
     33 H6          4.4788    2.6260   -0.4482 H         1 <0>         0.1418
     34 H7          2.7929    0.8492   -0.6360 H         1 <0>         0.1519
     35 H8         -2.4747    3.9786   -3.3355 H         1 <0>         0.2604
     36 H9         -2.1722    5.4375   -2.5589 H         1 <0>         0.2337
     37 H10        -3.9476   -1.8892    0.6942 H         1 <0>         0.0865
     38 H11        -5.1254   -0.8184   -0.1023 H         1 <0>         0.0816
     39 H12        -4.0423   -1.3471   -2.3068 H         1 <0>         0.1121
     40 H13        -2.4783   -3.2690   -2.4004 H         1 <0>         0.0708
     41 H14        -1.8079   -1.9472   -1.4146 H         1 <0>         0.0980
     42 H15        -2.5083   -3.3800   -0.6242 H         1 <0>         0.0682
     43 H16        -6.0347   -2.6005   -1.5270 H         1 <0>         0.0714
     44 H17        -4.9466   -3.6505   -2.4660 H         1 <0>         0.0804
     45 H18        -4.9767   -3.7615   -0.6898 H         1 <0>         0.0734
@<TRIPOS>BOND
     1    1    2 1
     2    1   28 1
     3    1   29 1
     4    1   30 1
     5    2    9 1
     6    2    3 2
     7    3    4 1
     8    3   21 1
     9    4    8 1
    10    4   16 1
    11    4    5 1
    12    5    6 2
    13    5   19 1
    14    6    7 1
    15    6   18 1
    16    7    8 1
    17    8    9 1
    18    8   10 1
    19   10   15 ar
    20   10   11 ar
    21   11   12 ar
    22   11   31 1
    23   12   13 ar
    24   12   32 1
    25   13   14 ar
    26   13   33 1
    27   14   15 ar
    28   14   34 1
    29   15   16 1
    30   16   17 2
    31   18   35 1
    32   18   36 1
    33   19   20 3
    34   21   22 2
    35   21   23 1
    36   23   24 1
    37   24   25 1
    38   24   37 1
    39   24   38 1
    40   25   26 1
    41   25   27 1
    42   25   39 1
    43   26   40 1
    44   26   41 1
    45   26   42 1
    46   27   43 1
    47   27   44 1
    48   27   45 1
@<TRIPOS>MOLECULE
ZINC00704338
   43    45     0     0     0
SMALL
USER_CHARGES

@<TRIPOS>ATOM
      1 C1         -9.6020   -3.4141    1.2120 C.3       1 <0>        -0.1779
      2 C2         -8.3425   -2.6255    0.9616 C.ar      1 <0>        -0.0558
      3 C3         -7.2536   -2.7818    1.8010 C.ar      1 <0>        -0.1271
      4 C4         -6.0975   -2.0634    1.5773 C.ar      1 <0>        -0.0880
      5 C5         -6.0277   -1.1766    0.5011 C.ar      1 <0>        -0.0861
      6 C6         -7.1321   -1.0193   -0.3385 C.ar      1 <0>        -0.0912
      7 C7         -8.2802   -1.7479   -0.1065 C.ar      1 <0>        -0.1278
      8 C8         -4.7923   -0.4030    0.2555 C.2       1 <0>         0.1706
      9 C9         -4.7890    1.0073    0.3707 C.2       1 <0>        -0.2331
     10 C10        -3.6052    1.7117    0.1318 C.2       1 <0>         0.2984
     11 N1         -2.4627    1.0553   -0.2081 N.am      1 <0>        -0.1843
     12 C11        -2.4335   -0.2834   -0.3311 C.2       1 <0>         0.3582
     13 O1         -1.3942   -0.8387   -0.6424 O.2       1 <0>        -0.3303
     14 C12        -3.5974   -1.0537   -0.0975 C.2       1 <0>        -0.1915
     15 C13        -3.5595   -2.4796   -0.2242 C.1       1 <0>        -0.0490
     16 N2         -3.5294   -3.6107   -0.3248 N.1       1 <0>        -0.0457
     17 C14        -1.2922    1.7911   -0.4405 C.ar      1 <0>        -0.0466
     18 C15        -1.0111    2.2644   -1.7153 C.ar      1 <0>        -0.0663
     19 C16         0.1389    2.9939   -1.9424 C.ar      1 <0>        -0.1565
     20 C17         1.0162    3.2495   -0.8983 C.ar      1 <0>         0.1193
     21 C18         0.7384    2.7723    0.3745 C.ar      1 <0>        -0.2203
     22 C19        -0.4111    2.0423    0.6027 C.ar      1 <0>        -0.0638
     23 O2          2.1481    3.9682   -1.1224 O.3       1 <0>        -0.2044
     24 C20         3.0060    4.1936   -0.0021 C.3       1 <0>        -0.0659
     25 N3         -3.5952    3.0737    0.2413 N.pl3     1 <0>        -0.3738
     26 C21        -5.9865    1.7061    0.7288 C.1       1 <0>        -0.0670
     27 N4         -6.9364    2.2606    1.0129 N.1       1 <0>        -0.0550
     28 H1        -10.2595   -2.8485    1.8722 H         1 <0>         0.0889
     29 H2        -10.1093   -3.5988    0.2651 H         1 <0>         0.0840
     30 H3         -9.3481   -4.3653    1.6798 H         1 <0>         0.0849
     31 H4         -7.3089   -3.4682    2.6331 H         1 <0>         0.1364
     32 H5         -5.2483   -2.1864    2.2332 H         1 <0>         0.1396
     33 H6         -7.0861   -0.3320   -1.1703 H         1 <0>         0.1363
     34 H7         -9.1338   -1.6303   -0.7576 H         1 <0>         0.1355
     35 H8         -1.6940    2.0658   -2.5280 H         1 <0>         0.1506
     36 H9          0.3555    3.3659   -2.9329 H         1 <0>         0.1559
     37 H10         1.4216    2.9716    1.1868 H         1 <0>         0.1467
     38 H11        -0.6272    1.6709    1.5936 H         1 <0>         0.1469
     39 H12         3.3411    3.2364    0.3973 H         1 <0>         0.0753
     40 H13         3.8701    4.7781   -0.3179 H         1 <0>         0.1154
     41 H14         2.4611    4.7383    0.7690 H         1 <0>         0.0684
     42 H15        -2.7594    3.5602    0.1656 H         1 <0>         0.2408
     43 H16        -4.4238    3.5540    0.3946 H         1 <0>         0.2555
@<TRIPOS>BOND
     1    1    2 1
     2    1   28 1
     3    1   29 1
     4    1   30 1
     5    2    7 ar
     6    2    3 ar
     7    3    4 ar
     8    3   31 1
     9    4    5 ar
    10    4   32 1
    11    5    6 ar
    12    5    8 1
    13    6    7 ar
    14    6   33 1
    15    7   34 1
    16    8   14 2
    17    8    9 1
    18    9   10 2
    19    9   26 1
    20   10   11 1
    21   10   25 1
    22   11   12 am
    23   11   17 1
    24   12   13 2
    25   12   14 1
    26   14   15 1
    27   15   16 3
    28   17   22 ar
    29   17   18 ar
    30   18   19 ar
    31   18   35 1
    32   19   20 ar
    33   19   36 1
    34   20   21 ar
    35   20   23 1
    36   21   22 ar
    37   21   37 1
    38   22   38 1
    39   23   24 1
    40   24   39 1
    41   24   40 1
    42   24   41 1
    43   25   42 1
    44   25   43 1
    45   26   27 3
@<TRIPOS>MOLECULE
ZINC00706105
   45    47     0     0     0
SMALL
USER_CHARGES

@<TRIPOS>ATOM
      1 C1          3.5275    0.8612   -4.7393 C.3       1 <0>        -0.2056
      2 C2          2.2021    1.6248   -4.7038 C.3       1 <0>        -0.1482
      3 C3          1.0396    0.6318   -4.7620 C.3       1 <0>        -0.1263
      4 C4         -0.2658    1.3839   -4.7270 C.2       1 <0>         0.1541
      5 C5         -0.7591    1.7718   -3.5421 C.2       1 <0>        -0.2271
      6 C6         -2.0526    2.5296   -3.4603 C.3       1 <0>         0.0885
      7 C7         -3.1519    1.6419   -2.9328 C.ar      1 <0>        -0.1289
      8 C8         -3.7207    0.4756   -3.3932 C.ar      1 <0>        -0.0652
      9 C9         -4.7389   -0.1267   -2.6754 C.ar      1 <0>        -0.1590
     10 C10        -5.1817    0.4461   -1.4971 C.ar      1 <0>        -0.0908
     11 C11        -4.6143    1.6147   -1.0333 C.ar      1 <0>        -0.1607
     12 C12        -3.5886    2.2275   -1.7502 C.ar      1 <0>         0.0813
     13 N1         -2.8659    3.3938   -1.4935 N.am      1 <0>        -0.2980
     14 C13        -1.9483    3.6425   -2.4449 C.2       1 <0>         0.3384
     15 O1         -1.1822    4.5822   -2.4804 O.2       1 <0>        -0.3178
     16 C14        -2.4240    3.0814   -4.8067 C.2       1 <0>        -0.2426
     17 C15        -1.8286    2.6080   -5.9301 C.2       1 <0>         0.2653
     18 O2         -0.8984    1.6386   -5.8813 O.3       1 <0>        -0.1354
     19 N2         -2.1848    3.1324   -7.1477 N.pl3     1 <0>        -0.3803
     20 C16        -3.4124    4.1128   -4.9054 C.1       1 <0>        -0.0636
     21 N3         -4.1966    4.9310   -4.9838 N.1       1 <0>        -0.0626
     22 C17        -0.0491    1.4682   -2.3547 C.2       1 <0>         0.3735
     23 O3          1.0628    0.9788   -2.4191 O.2       1 <0>        -0.3793
     24 O4         -0.6059    1.7219   -1.1522 O.3       1 <0>        -0.2540
     25 C18         0.1668    1.3906    0.0033 C.3       1 <0>        -0.0054
     26 C19        -0.6229    1.7471    1.2643 C.3       1 <0>        -0.2142
     27 H1          3.5818    0.1877   -3.8839 H         1 <0>         0.0839
     28 H2          3.5892    0.2832   -5.6613 H         1 <0>         0.0665
     29 H3          4.3556    1.5687   -4.6978 H         1 <0>         0.0772
     30 H4          2.1478    2.2983   -5.5591 H         1 <0>         0.0754
     31 H5          2.1404    2.2028   -3.7817 H         1 <0>         0.1097
     32 H6          1.0939   -0.0417   -3.9066 H         1 <0>         0.1573
     33 H7          1.1014    0.0538   -5.6840 H         1 <0>         0.0908
     34 H8         -3.3721    0.0310   -4.3137 H         1 <0>         0.1314
     35 H9         -5.1865   -1.0418   -3.0342 H         1 <0>         0.1336
     36 H10        -5.9764   -0.0241   -0.9370 H         1 <0>         0.1333
     37 H11        -4.9658    2.0556   -0.1121 H         1 <0>         0.1314
     38 H12        -3.0091    3.9596   -0.7187 H         1 <0>         0.2453
     39 H13        -2.8545    3.8325   -7.1971 H         1 <0>         0.2612
     40 H14        -1.7669    2.8029   -7.9587 H         1 <0>         0.2317
     41 H15         0.3845    0.3225    0.0008 H         1 <0>         0.0853
     42 H16         1.1011    1.9519   -0.0111 H         1 <0>         0.0896
     43 H17        -0.8407    2.8152    1.2668 H         1 <0>         0.0854
     44 H18        -1.5572    1.1858    1.2788 H         1 <0>         0.0855
     45 H19        -0.0336    1.4944    2.1457 H         1 <0>         0.0892
@<TRIPOS>BOND
     1    1    2 1
     2    1   27 1
     3    1   28 1
     4    1   29 1
     5    2    3 1
     6    2   30 1
     7    2   31 1
     8    3    4 1
     9    3   32 1
    10    3   33 1
    11    4   18 1
    12    4    5 2
    13    5    6 1
    14    5   22 1
    15    6   14 1
    16    6    7 1
    17    6   16 1
    18    7   12 ar
    19    7    8 ar
    20    8    9 ar
    21    8   34 1
    22    9   10 ar
    23    9   35 1
    24   10   11 ar
    25   10   36 1
    26   11   12 ar
    27   11   37 1
    28   12   13 1
    29   13   14 am
    30   13   38 1
    31   14   15 2
    32   16   17 2
    33   16   20 1
    34   17   18 1
    35   17   19 1
    36   19   39 1
    37   19   40 1
    38   20   21 3
    39   22   23 2
    40   22   24 1
    41   24   25 1
    42   25   26 1
    43   25   41 1
    44   25   42 1
    45   26   43 1
    46   26   44 1
    47   26   45 1
@<TRIPOS>MOLECULE
ZINC00707790
   45    48     0     0     0
SMALL
USER_CHARGES

@<TRIPOS>ATOM
      1 C1         -6.8738    3.5536   -7.6408 C.3       1 <0>        -0.0645
      2 O1         -5.5094    3.2296   -7.9152 O.3       1 <0>        -0.1951
      3 C2         -4.8450    2.5073   -6.9737 C.ar      1 <0>         0.0825
      4 C3         -5.4924    2.1189   -5.8118 C.ar      1 <0>        -0.1844
      5 C4         -4.8173    1.3795   -4.8586 C.ar      1 <0>        -0.1064
      6 C5         -3.4929    1.0356   -5.0563 C.ar      1 <0>        -0.0879
      7 C6         -2.8411    1.4200   -6.2132 C.ar      1 <0>        -0.1709
      8 C7         -3.5136    2.1564   -7.1753 C.ar      1 <0>         0.0762
      9 O2         -2.8737    2.5356   -8.3137 O.3       1 <0>        -0.1945
     10 C8         -1.5075    2.1403   -8.4525 C.3       1 <0>        -0.0639
     11 C9         -2.7600    0.2348   -4.0110 C.3       1 <0>        -0.0433
     12 C10        -2.1027    1.1713   -3.0302 C.2       1 <0>        -0.1037
     13 C11        -1.3213    0.6382   -1.9073 C.2       1 <0>         0.2900
     14 O3         -1.1996   -0.5635   -1.7605 O.2       1 <0>        -0.3230
     15 N1         -0.7405    1.4903   -1.0408 N.am      1 <0>        -0.1763
     16 C12        -0.8849    2.8507   -1.2064 C.2       1 <0>         0.2329
     17 N2         -0.3051    3.6443   -0.3337 N.2       1 <0>        -0.2425
     18 C13        -0.3913    4.9850   -0.4149 C.ar      1 <0>         0.0837
     19 C14         0.2292    5.8197    0.5198 C.ar      1 <0>        -0.1259
     20 C15         0.1141    7.1755    0.3977 C.ar      1 <0>        -0.0838
     21 C16        -0.6117    7.7412   -0.6431 C.ar      1 <0>        -0.1589
     22 C17        -1.2300    6.9521   -1.5730 C.ar      1 <0>        -0.0435
     23 C18        -1.1291    5.5648   -1.4727 C.ar      1 <0>        -0.2013
     24 C19        -1.7617    4.6666   -2.4445 C.2       1 <0>         0.3714
     25 O4         -2.4097    5.1051   -3.3768 O.2       1 <0>        -0.2877
     26 N3         -1.6128    3.3327   -2.2620 N.am      1 <0>        -0.2176
     27 N4         -2.2224    2.4577   -3.1712 N.2       1 <0>         0.0534
     28 N5         -0.0116    1.0048    0.0076 N.3       1 <0>        -0.2021
     29 H1         -7.2842    4.1298   -8.4701 H         1 <0>         0.1090
     30 H2         -7.4477    2.6352   -7.5174 H         1 <0>         0.0640
     31 H3         -6.9303    4.1431   -6.7257 H         1 <0>         0.0693
     32 H4         -6.5258    2.3897   -5.6531 H         1 <0>         0.1413
     33 H5         -5.3245    1.0733   -3.9555 H         1 <0>         0.1305
     34 H6         -1.8079    1.1460   -6.3673 H         1 <0>         0.1374
     35 H7         -1.1180    2.5063   -9.4025 H         1 <0>         0.1091
     36 H8         -0.9228    2.5603   -7.6341 H         1 <0>         0.0675
     37 H9         -1.4396    1.0527   -8.4268 H         1 <0>         0.0626
     38 H10        -1.9993   -0.3802   -4.4918 H         1 <0>         0.1185
     39 H11        -3.4660   -0.4067   -3.4836 H         1 <0>         0.1229
     40 H12         0.7966    5.3945    1.3345 H         1 <0>         0.1513
     41 H13         0.5949    7.8173    1.1210 H         1 <0>         0.1358
     42 H14        -0.6880    8.8158   -0.7187 H         1 <0>         0.1376
     43 H15        -1.7920    7.3999   -2.3792 H         1 <0>         0.1551
     44 H16         0.0021   -0.0041    0.0020 H         1 <0>         0.1978
     45 H17         0.9253    1.3792    0.0006 H         1 <0>         0.1775
@<TRIPOS>BOND
     1    1    2 1
     2    1   29 1
     3    1   30 1
     4    1   31 1
     5    2    3 1
     6    3    8 ar
     7    3    4 ar
     8    4    5 ar
     9    4   32 1
    10    5    6 ar
    11    5   33 1
    12    6    7 ar
    13    6   11 1
    14    7    8 ar
    15    7   34 1
    16    8    9 1
    17    9   10 1
    18   10   35 1
    19   10   36 1
    20   10   37 1
    21   11   12 1
    22   11   38 1
    23   11   39 1
    24   12   27 2
    25   12   13 1
    26   13   14 2
    27   13   15 am
    28   15   16 1
    29   15   28 1
    30   16   26 1
    31   16   17 2
    32   17   18 1
    33   18   23 ar
    34   18   19 ar
    35   19   20 ar
    36   19   40 1
    37   20   21 ar
    38   20   41 1
    39   21   22 ar
    40   21   42 1
    41   22   23 ar
    42   22   43 1
    43   23   24 1
    44   24   25 2
    45   24   26 am
    46   26   27 1
    47   28   44 1
    48   28   45 1
@<TRIPOS>MOLECULE
ZINC00716305
   45    48     0     0     0
SMALL
USER_CHARGES

@<TRIPOS>ATOM
      1 C1         -0.0828    4.6931    6.5922 C.3       1 <0>        -0.0640
      2 O1          0.9190    5.3018    5.7749 O.3       1 <0>        -0.1944
      3 C2          0.9469    4.9439    4.4632 C.ar      1 <0>         0.0774
      4 C3          0.0300    4.0275    3.9738 C.ar      1 <0>        -0.1916
      5 C4          0.0559    3.6694    2.6388 C.ar      1 <0>        -0.1201
      6 C5          1.0025    4.2152    1.7918 C.ar      1 <0>        -0.0832
      7 C6          1.9201    5.1300    2.2736 C.ar      1 <0>        -0.1478
      8 C7          1.8960    5.4976    3.6094 C.ar      1 <0>         0.0736
      9 O2          2.7978    6.3977    4.0848 O.3       1 <0>        -0.1968
     10 C8          3.7423    6.9249    3.1510 C.3       1 <0>        -0.0678
     11 C9          1.0301    3.8166    0.3387 C.3       1 <0>         0.0767
     12 H1          1.8385    4.3460   -0.1658 H         1 <0>         0.1426
     13 C10         1.2626    2.3336    0.2326 C.2       1 <0>        -0.2616
     14 C11         0.2302    1.4936   -0.0675 C.2       1 <0>         0.1653
     15 C12         0.5090    0.0521   -0.1552 C.ar      1 <0>        -0.1382
     16 C13        -0.5024   -0.8621   -0.4565 C.ar      1 <0>        -0.0588
     17 C14        -0.2061   -2.2051   -0.5295 C.ar      1 <0>        -0.1572
     18 C15         1.0887   -2.6498   -0.3056 C.ar      1 <0>        -0.0704
     19 C16         2.0969   -1.7573   -0.0077 C.ar      1 <0>        -0.1457
     20 C17         1.8196   -0.3988    0.0708 C.ar      1 <0>         0.1367
     21 O3          2.7942    0.4897    0.3618 O.3       1 <0>        -0.1676
     22 C18         2.5473    1.8068    0.4443 C.2       1 <0>         0.3764
     23 O4          3.4629    2.5659    0.7101 O.2       1 <0>        -0.2865
     24 O5         -1.0121    1.9637   -0.2845 O.3       1 <0>        -0.1415
     25 C19        -1.1985    3.2697   -0.5648 C.2       1 <0>         0.2846
     26 C20        -0.2802    4.1826   -0.3004 C.2       1 <0>        -0.2941
     27 N1         -0.5485    5.5984   -0.6410 N.pl3     1 <0>         0.5768
     28 O6         -1.6465    5.9283   -1.0522 O.2       1 <0>        -0.3927
     29 O7          0.3288    6.4331   -0.5100 O.3       1 <0>        -0.3438
     30 N2         -2.3918    3.6668   -1.1553 N.pl3     1 <0>        -0.4003
     31 H2         -1.0699    4.9387    6.2005 H         1 <0>         0.0653
     32 H3          0.0516    3.6114    6.5866 H         1 <0>         0.0645
     33 H4          0.0059    5.0649    7.6130 H         1 <0>         0.1088
     34 H5         -0.7077    3.5963    4.6343 H         1 <0>         0.1384
     35 H6         -0.6623    2.9586    2.2576 H         1 <0>         0.1222
     36 H7          2.6560    5.5580    1.6089 H         1 <0>         0.1542
     37 H8          4.3340    6.1102    2.7336 H         1 <0>         0.0716
     38 H9          3.2123    7.4374    2.3482 H         1 <0>         0.0717
     39 H10         4.4011    7.6292    3.6590 H         1 <0>         0.1076
     40 H11        -1.5111   -0.5181   -0.6316 H         1 <0>         0.1500
     41 H12        -0.9855   -2.9155   -0.7624 H         1 <0>         0.1431
     42 H13         1.3094   -3.7053   -0.3657 H         1 <0>         0.1452
     43 H14         3.1016   -2.1146    0.1641 H         1 <0>         0.1599
     44 H15        -2.3855    4.3293   -1.8639 H         1 <0>         0.2768
     45 H16        -3.2313    3.2816   -0.8590 H         1 <0>         0.2345
@<TRIPOS>BOND
     1    1    2 1
     2    1   31 1
     3    1   32 1
     4    1   33 1
     5    2    3 1
     6    3    8 ar
     7    3    4 ar
     8    4    5 ar
     9    4   34 1
    10    5    6 ar
    11    5   35 1
    12    6    7 ar
    13    6   11 1
    14    7    8 ar
    15    7   36 1
    16    8    9 1
    17    9   10 1
    18   10   37 1
    19   10   38 1
    20   10   39 1
    21   11   12 1
    22   11   26 1
    23   11   13 1
    24   13   22 1
    25   13   14 2
    26   14   15 1
    27   14   24 1
    28   15   20 ar
    29   15   16 ar
    30   16   17 ar
    31   16   40 1
    32   17   18 ar
    33   17   41 1
    34   18   19 ar
    35   18   42 1
    36   19   20 ar
    37   19   43 1
    38   20   21 1
    39   21   22 1
    40   22   23 2
    41   24   25 1
    42   25   26 2
    43   25   30 1
    44   26   27 1
    45   27   28 2
    46   27   29 1
    47   30   44 1
    48   30   45 1
@<TRIPOS>MOLECULE
ZINC00716307
   45    48     0     0     0
SMALL
USER_CHARGES

@<TRIPOS>ATOM
      1 C1         -0.9632   -3.6078    6.3627 C.3       1 <0>        -0.0640
      2 O1         -1.9623   -3.9618    5.4043 O.3       1 <0>        -0.1947
      3 C2         -1.7758   -3.5280    4.1290 C.ar      1 <0>         0.0790
      4 C3         -0.6555   -2.7787    3.8073 C.ar      1 <0>        -0.1889
      5 C4         -0.4643   -2.3437    2.5091 C.ar      1 <0>        -0.1104
      6 C5         -1.3946   -2.6450    1.5318 C.ar      1 <0>        -0.0866
      7 C6         -2.5144   -3.3922    1.8460 C.ar      1 <0>        -0.1573
      8 C7         -2.7093   -3.8361    3.1441 C.ar      1 <0>         0.0751
      9 O2         -3.8101   -4.5717    3.4547 O.3       1 <0>        -0.1962
     10 C8         -4.7252   -4.8500    2.3930 C.3       1 <0>        -0.0668
     11 C9         -1.1843   -2.1630    0.1195 C.3       1 <0>         0.0867
     12 H1         -2.0100   -2.5038   -0.5052 H         1 <0>         0.1360
     13 C10         0.1073   -2.7235   -0.4116 C.2       1 <0>        -0.2564
     14 C11         1.2154   -1.9329   -0.5034 C.2       1 <0>         0.1665
     15 C12         2.4532   -2.5279   -1.0300 C.ar      1 <0>        -0.1375
     16 C13         3.6218   -1.7735   -1.1516 C.ar      1 <0>        -0.0596
     17 C14         4.7631   -2.3625   -1.6489 C.ar      1 <0>        -0.1567
     18 C15         4.7546   -3.6972   -2.0268 C.ar      1 <0>        -0.0704
     19 C16         3.6071   -4.4534   -1.9116 C.ar      1 <0>        -0.1451
     20 C17         2.4452   -3.8788   -1.4130 C.ar      1 <0>         0.1370
     21 O3          1.3117   -4.6034   -1.2938 O.3       1 <0>        -0.1672
     22 C18         0.1776   -4.0669   -0.8158 C.2       1 <0>         0.3769
     23 O4         -0.8179   -4.7645   -0.7299 O.2       1 <0>        -0.2870
     24 O5          1.1854   -0.6416   -0.1253 O.3       1 <0>        -0.1331
     25 C19         0.0011   -0.0041   -0.0071 C.2       1 <0>         0.2709
     26 C20        -1.1393   -0.6606    0.1155 C.2       1 <0>        -0.3150
     27 N1         -2.4022    0.1012    0.2462 N.pl3     1 <0>         0.5598
     28 O6         -3.0747    0.3393   -0.7410 O.2       1 <0>        -0.3540
     29 O7         -2.7685    0.4899    1.3409 O.3       1 <0>        -0.3380
     30 N2         -0.0187    1.3852   -0.0088 N.pl3     1 <0>        -0.3957
     31 H2         -1.2335   -4.0154    7.3368 H         1 <0>         0.1086
     32 H3         -0.0013   -4.0158    6.0523 H         1 <0>         0.0642
     33 H4         -0.8927   -2.5222    6.4300 H         1 <0>         0.0663
     34 H5          0.0705   -2.5381    4.5699 H         1 <0>         0.1388
     35 H6          0.4117   -1.7637    2.2587 H         1 <0>         0.1240
     36 H7         -3.2376   -3.6297    1.0798 H         1 <0>         0.1484
     37 H8         -5.5562   -5.4426    2.7756 H         1 <0>         0.1082
     38 H9         -5.1045   -3.9130    1.9853 H         1 <0>         0.0679
     39 H10        -4.2129   -5.4067    1.6084 H         1 <0>         0.0717
     40 H11         3.6305   -0.7342   -0.8580 H         1 <0>         0.1488
     41 H12         5.6692   -1.7826   -1.7447 H         1 <0>         0.1431
     42 H13         5.6557   -4.1488   -2.4146 H         1 <0>         0.1453
     43 H14         3.6120   -5.4917   -2.2089 H         1 <0>         0.1601
     44 H15         0.8144    1.8821   -0.0099 H         1 <0>         0.2357
     45 H16        -0.8655    1.8582   -0.0128 H         1 <0>         0.2617
@<TRIPOS>BOND
     1    1    2 1
     2    1   31 1
     3    1   32 1
     4    1   33 1
     5    2    3 1
     6    3    8 ar
     7    3    4 ar
     8    4    5 ar
     9    4   34 1
    10    5    6 ar
    11    5   35 1
    12    6    7 ar
    13    6   11 1
    14    7    8 ar
    15    7   36 1
    16    8    9 1
    17    9   10 1
    18   10   37 1
    19   10   38 1
    20   10   39 1
    21   11   12 1
    22   11   26 1
    23   11   13 1
    24   13   22 1
    25   13   14 2
    26   14   15 1
    27   14   24 1
    28   15   20 ar
    29   15   16 ar
    30   16   17 ar
    31   16   40 1
    32   17   18 ar
    33   17   41 1
    34   18   19 ar
    35   18   42 1
    36   19   20 ar
    37   19   43 1
    38   20   21 1
    39   21   22 1
    40   22   23 2
    41   24   25 1
    42   25   26 2
    43   25   30 1
    44   26   27 1
    45   27   28 2
    46   27   29 1
    47   30   44 1
    48   30   45 1
@<TRIPOS>MOLECULE
ZINC00718534
   43    46     0     0     0
SMALL
USER_CHARGES

@<TRIPOS>ATOM
      1 C1         -1.0721   -2.1258    0.0004 C.3       1 <0>        -0.0615
      2 O1         -1.1662   -0.6999    0.0090 O.3       1 <0>        -0.2145
      3 C2          0.0021   -0.0041    0.0020 C.ar      1 <0>         0.0586
      4 C3          1.2127   -0.6812   -0.0132 C.ar      1 <0>        -0.1807
      5 C4          2.3992    0.0255   -0.0211 C.ar      1 <0>        -0.1801
      6 C5          2.3804    1.4126   -0.0135 C.ar      1 <0>         0.0691
      7 C6          1.1702    2.0895    0.0021 C.ar      1 <0>        -0.0647
      8 C7         -0.0167    1.3825    0.0096 C.ar      1 <0>        -0.1052
      9 C8          1.1497    3.5964    0.0099 C.3       1 <0>         0.0997
     10 H1          2.1706    3.9780   -0.0087 H         1 <0>         0.1309
     11 C9          0.3955    4.1008   -1.1931 C.2       1 <0>        -0.2550
     12 C10         0.7757    4.1020   -2.5402 C.2       1 <0>         0.0446
     13 N1         -0.2066    4.6434   -3.2382 N.2       1 <0>        -0.0506
     14 N2         -1.2344    4.9994   -2.3512 N.pl3     1 <0>        -0.1719
     15 H2         -2.1023    5.4295   -2.5997 H         1 <0>         0.2895
     16 C11        -0.8461    4.6596   -1.1042 C.2       1 <0>         0.1078
     17 O2         -1.4999    4.8073    0.0752 O.3       1 <0>        -0.1360
     18 C12        -0.7888    4.6409    1.2088 C.2       1 <0>         0.2673
     19 C13         0.4444    4.0894    1.2487 C.2       1 <0>        -0.2511
     20 C14         1.1054    3.9684    2.5133 C.1       1 <0>        -0.0595
     21 N3          1.6298    3.8724    3.5164 N.1       1 <0>        -0.0755
     22 N4         -1.3504    5.0553    2.3909 N.pl3     1 <0>        -0.3894
     23 C15         2.0515    3.5892   -3.0854 C.2       1 <0>        -0.2081
     24 C16         2.2883    2.9560   -4.2754 C.2       1 <0>        -0.1479
     25 C17         3.5764    2.5669   -4.5741 C.2       1 <0>        -0.1786
     26 C18         4.5659    2.8127   -3.6781 C.2       1 <0>        -0.3276
     27 S1          3.6819    3.6281   -2.3588 S.3       1 <0>         0.4025
     28 O3          3.5486    2.1084   -0.0209 O.3       1 <0>        -0.2060
     29 C19         4.7575    1.3465   -0.0365 C.3       1 <0>        -0.0637
     30 H3         -0.5436   -2.4497   -0.8962 H         1 <0>         0.0660
     31 H4         -0.5273   -2.4593    0.8837 H         1 <0>         0.0662
     32 H5         -2.0735   -2.5561    0.0073 H         1 <0>         0.1053
     33 H6          1.2273   -1.7611   -0.0191 H         1 <0>         0.1339
     34 H7          3.3417   -0.5017   -0.0329 H         1 <0>         0.1353
     35 H8         -0.9593    1.9098    0.0170 H         1 <0>         0.1461
     36 H9         -0.8633    4.9485    3.2229 H         1 <0>         0.2614
     37 H10        -2.2342    5.4548    2.3942 H         1 <0>         0.2280
     38 H11         1.4818    2.7675   -4.9685 H         1 <0>         0.1513
     39 H12         3.7948    2.0687   -5.5071 H         1 <0>         0.1415
     40 H13         5.6174    2.5759   -3.7459 H         1 <0>         0.1836
     41 H14         4.7824    0.7229   -0.9301 H         1 <0>         0.0655
     42 H15         5.6128    2.0222   -0.0410 H         1 <0>         0.1048
     43 H16         4.7994    0.7133    0.8497 H         1 <0>         0.0684
@<TRIPOS>BOND
     1    1    2 1
     2    1   30 1
     3    1   31 1
     4    1   32 1
     5    2    3 1
     6    3    8 ar
     7    3    4 ar
     8    4    5 ar
     9    4   33 1
    10    5    6 ar
    11    5   34 1
    12    6    7 ar
    13    6   28 1
    14    7    8 ar
    15    7    9 1
    16    8   35 1
    17    9   10 1
    18    9   19 1
    19    9   11 1
    20   11   16 2
    21   11   12 1
    22   12   13 2
    23   12   23 1
    24   13   14 1
    25   14   15 1
    26   14   16 1
    27   16   17 1
    28   17   18 1
    29   18   19 2
    30   18   22 1
    31   19   20 1
    32   20   21 3
    33   22   36 1
    34   22   37 1
    35   23   27 1
    36   23   24 2
    37   24   25 1
    38   24   38 1
    39   25   26 2
    40   25   39 1
    41   26   27 1
    42   26   40 1
    43   28   29 1
    44   29   41 1
    45   29   42 1
    46   29   43 1
@<TRIPOS>MOLECULE
ZINC00718534
   43    46     0     0     0
SMALL
USER_CHARGES

@<TRIPOS>ATOM
      1 C1         -1.0725   -2.1258    0.0005 C.3       1 <0>        -0.0615
      2 O1         -1.1665   -0.6999    0.0091 O.3       1 <0>        -0.2127
      3 C2          0.0018   -0.0041    0.0021 C.ar      1 <0>         0.0595
      4 C3          1.2124   -0.6813   -0.0131 C.ar      1 <0>        -0.1827
      5 C4          2.3989    0.0253   -0.0211 C.ar      1 <0>        -0.1804
      6 C5          2.3802    1.4124   -0.0135 C.ar      1 <0>         0.0644
      7 C6          1.1701    2.0894    0.0021 C.ar      1 <0>        -0.0633
      8 C7         -0.0169    1.3825    0.0096 C.ar      1 <0>        -0.1044
      9 C8          1.1497    3.5963    0.0099 C.3       1 <0>         0.1009
     10 H1          2.1706    3.9778   -0.0087 H         1 <0>         0.1259
     11 C9          0.3955    4.1007   -1.1931 C.2       1 <0>        -0.2634
     12 C10         0.7756    4.1019   -2.5402 C.2       1 <0>         0.0777
     13 N1         -0.2063    4.6442   -3.2381 N.pl3     1 <0>        -0.1318
     14 N2         -1.2338    5.0006   -2.3510 N.2       1 <0>        -0.0894
     15 H2         -0.2158    4.7778   -4.2291 H         1 <0>         0.2933
     16 C11        -0.8457    4.6604   -1.1041 C.2       1 <0>         0.0838
     17 O2         -1.4994    4.8083    0.0753 O.3       1 <0>        -0.1051
     18 C12        -0.7884    4.6413    1.2089 C.2       1 <0>         0.2706
     19 C13         0.4444    4.0889    1.2487 C.2       1 <0>        -0.2650
     20 C14         1.1053    3.9672    2.5133 C.1       1 <0>        -0.0570
     21 N3          1.6297    3.8707    3.5163 N.1       1 <0>        -0.0822
     22 N4         -1.3497    5.0559    2.3911 N.pl3     1 <0>        -0.3870
     23 C15         2.0514    3.5890   -3.0854 C.2       1 <0>        -0.2457
     24 C16         2.2881    2.9558   -4.2754 C.2       1 <0>        -0.1607
     25 C17         3.5762    2.5666   -4.5741 C.2       1 <0>        -0.1787
     26 C18         4.5657    2.8123   -3.6782 C.2       1 <0>        -0.3251
     27 S1          3.6818    3.6278   -2.3589 S.3       1 <0>         0.4383
     28 O3          3.5485    2.1082   -0.0209 O.3       1 <0>        -0.2086
     29 C19         4.7573    1.3462   -0.0365 C.3       1 <0>        -0.0640
     30 H3         -0.5440   -2.4497   -0.8961 H         1 <0>         0.0648
     31 H4         -0.5277   -2.4593    0.8838 H         1 <0>         0.0664
     32 H5         -2.0739   -2.5560    0.0075 H         1 <0>         0.1059
     33 H6          1.2269   -1.7612   -0.0190 H         1 <0>         0.1338
     34 H7          3.3414   -0.5019   -0.0329 H         1 <0>         0.1344
     35 H8         -0.9594    1.9098    0.0171 H         1 <0>         0.1507
     36 H9         -0.8627    4.9486    3.2230 H         1 <0>         0.2595
     37 H10        -2.2332    5.4560    2.3945 H         1 <0>         0.2302
     38 H11         1.4816    2.7673   -4.9685 H         1 <0>         0.1394
     39 H12         3.7946    2.0683   -5.5071 H         1 <0>         0.1439
     40 H13         5.6172    2.5755   -3.7460 H         1 <0>         0.1871
     41 H14         4.7822    0.7226   -0.9301 H         1 <0>         0.0636
     42 H15         5.6127    2.0218   -0.0411 H         1 <0>         0.1038
     43 H16         4.7992    0.7130    0.8497 H         1 <0>         0.0704
@<TRIPOS>BOND
     1    1    2 1
     2    1   30 1
     3    1   31 1
     4    1   32 1
     5    2    3 1
     6    3    8 ar
     7    3    4 ar
     8    4    5 ar
     9    4   33 1
    10    5    6 ar
    11    5   34 1
    12    6    7 ar
    13    6   28 1
    14    7    8 ar
    15    7    9 1
    16    8   35 1
    17    9   10 1
    18    9   19 1
    19    9   11 1
    20   11   16 1
    21   11   12 2
    22   12   23 1
    23   12   13 1
    24   13   15 1
    25   13   14 1
    26   14   16 2
    27   16   17 1
    28   17   18 1
    29   18   19 2
    30   18   22 1
    31   19   20 1
    32   20   21 3
    33   22   36 1
    34   22   37 1
    35   23   27 1
    36   23   24 2
    37   24   25 1
    38   24   38 1
    39   25   26 2
    40   25   39 1
    41   26   27 1
    42   26   40 1
    43   28   29 1
    44   29   41 1
    45   29   42 1
    46   29   43 1
@<TRIPOS>MOLECULE
ZINC00719257
   42    45     0     0     0
SMALL
USER_CHARGES

@<TRIPOS>ATOM
      1 C1         -1.8432   -3.0372    0.4877 C.3       1 <0>        -0.1667
      2 C2         -0.7161   -2.0419    0.3866 C.ar      1 <0>         0.0409
      3 C3          0.5984   -2.4844    0.4103 C.ar      1 <0>        -0.1837
      4 C4          1.6362   -1.5876    0.3197 C.ar      1 <0>         0.0221
      5 C5          1.3429   -0.2058    0.2015 C.ar      1 <0>        -0.1538
      6 C6          2.2807    0.9081    0.0968 C.2       1 <0>         0.0313
      7 C7          1.7228    2.1743   -0.0215 C.2       1 <0>        -0.3994
      8 S1         -0.0208    1.9114    0.0245 S.3       1 <0>         0.4865
      9 C8         -0.0273    0.1406    0.1846 C.ar      1 <0>        -0.1339
     10 N1         -0.9856   -0.7559    0.2756 N.ar      1 <0>        -0.1432
     11 C9          2.4774    3.3568   -0.1366 C.2       1 <0>         0.3985
     12 O1          1.9739    4.4630   -0.0616 O.2       1 <0>        -0.3437
     13 N2          3.8106    3.1735   -0.3383 N.am      1 <0>        -0.4276
     14 C10         4.3236    1.8418   -0.6506 C.3       1 <0>         0.1672
     15 H1          4.1624    1.6434   -1.7102 H         1 <0>         0.1236
     16 N3          3.6792    0.7834    0.1280 N.pl3     1 <0>        -0.2412
     17 C11         5.8046    1.8151   -0.3729 C.ar      1 <0>        -0.1391
     18 C12         6.3505    2.6850    0.5515 C.ar      1 <0>        -0.1094
     19 C13         7.7089    2.6609    0.8067 C.ar      1 <0>        -0.1357
     20 C14         8.5247    1.7664    0.1384 C.ar      1 <0>        -0.1017
     21 C15         7.9837    0.8942   -0.7859 C.ar      1 <0>        -0.1578
     22 C16         6.6199    0.9134   -1.0407 C.ar      1 <0>         0.0996
     23 O2          6.0845    0.0530   -1.9463 O.3       1 <0>        -0.2852
     24 C17         3.0649   -2.0666    0.3450 C.3       1 <0>         0.0193
     25 O3          3.0880   -3.4899    0.4695 O.3       1 <0>        -0.2956
     26 C18         4.4026   -4.0492    0.5033 C.3       1 <0>        -0.0590
     27 H2         -2.1266   -3.3679   -0.5115 H         1 <0>         0.0982
     28 H3         -1.5183   -3.8954    1.0759 H         1 <0>         0.0893
     29 H4         -2.6998   -2.5681    0.9717 H         1 <0>         0.1027
     30 H5          0.8077   -3.5401    0.5010 H         1 <0>         0.1647
     31 H6          4.4194    3.9259   -0.2744 H         1 <0>         0.2422
     32 H7          4.0203    0.7743    1.0775 H         1 <0>         0.1895
     33 H8          5.7154    3.3845    1.0748 H         1 <0>         0.1416
     34 H9          8.1337    3.3417    1.5296 H         1 <0>         0.1382
     35 H10         9.5857    1.7496    0.3396 H         1 <0>         0.1377
     36 H11         8.6212    0.1956   -1.3074 H         1 <0>         0.1448
     37 H12         6.1308    0.3650   -2.8604 H         1 <0>         0.2317
     38 H13         3.5624   -1.7746   -0.5798 H         1 <0>         0.1074
     39 H14         3.5831   -1.6192    1.1933 H         1 <0>         0.0829
     40 H15         4.9485   -3.6429    1.3548 H         1 <0>         0.0560
     41 H16         4.3341   -5.1328    0.5990 H         1 <0>         0.0992
     42 H17         4.9279   -3.7983   -0.4183 H         1 <0>         0.0613
@<TRIPOS>BOND
     1    1    2 1
     2    1   27 1
     3    1   28 1
     4    1   29 1
     5    2   10 ar
     6    2    3 ar
     7    3    4 ar
     8    3   30 1
     9    4    5 ar
    10    4   24 1
    11    5    9 ar
    12    5    6 1
    13    6   16 1
    14    6    7 2
    15    7    8 1
    16    7   11 1
    17    8    9 1
    18    9   10 ar
    19   11   12 2
    20   11   13 am
    21   13   14 1
    22   13   31 1
    23   14   15 1
    24   14   16 1
    25   14   17 1
    26   16   32 1
    27   17   22 ar
    28   17   18 ar
    29   18   19 ar
    30   18   33 1
    31   19   20 ar
    32   19   34 1
    33   20   21 ar
    34   20   35 1
    35   21   22 ar
    36   21   36 1
    37   22   23 1
    38   23   37 1
    39   24   25 1
    40   24   38 1
    41   24   39 1
    42   25   26 1
    43   26   40 1
    44   26   41 1
    45   26   42 1
@<TRIPOS>MOLECULE
ZINC00727263
   41    44     0     0     0
SMALL
USER_CHARGES

@<TRIPOS>ATOM
      1 C1          0.8271    1.7905   -1.7761 C.ar      1 <0>        -0.1395
      2 C2         -0.2717    1.0812   -1.3366 C.ar      1 <0>        -0.0676
      3 C3         -1.4041    1.7623   -0.8878 C.ar      1 <0>        -0.1260
      4 C4         -1.4128    3.1582   -0.8768 C.ar      1 <0>        -0.0105
      5 C5         -0.3075    3.8552   -1.3184 C.ar      1 <0>        -0.1193
      6 C6          0.8101    3.1738   -1.7672 C.ar      1 <0>        -0.0478
      7 N1         -0.3171    5.3354   -1.3128 N.pl3     1 <0>         0.5486
      8 O1          0.6580    5.9522   -1.7029 O.2       1 <0>        -0.3519
      9 O2         -1.3001    5.9365   -0.9181 O.3       1 <0>        -0.3434
     10 C7         -2.5876    1.0087   -0.4216 C.2       1 <0>         0.3448
     11 O3         -3.5725    1.6046   -0.0313 O.2       1 <0>        -0.3662
     12 N2         -2.5745   -0.3390   -0.4296 N.am      1 <0>        -0.2627
     13 N3         -3.6960   -1.0531    0.0121 N.pl3     1 <0>        -0.2357
     14 C8         -3.6824   -2.4362    0.0040 C.ar      1 <0>         0.2385
     15 C9         -4.8968   -3.1696    0.1121 C.ar      1 <0>        -0.2382
     16 C10        -6.2646   -2.6643    0.2418 C.2       1 <0>        -0.0904
     17 C11        -7.2496   -3.5811    0.3275 C.2       1 <0>        -0.2572
     18 S1         -6.4298   -5.1508    0.2422 S.3       1 <0>         0.3932
     19 C12        -4.7600   -4.5720    0.0916 C.ar      1 <0>        -0.0861
     20 N4         -3.5789   -5.1483   -0.0199 N.ar      1 <0>        -0.2112
     21 C13        -2.4869   -4.4149   -0.1160 C.ar      1 <0>         0.0770
     22 N5         -2.5405   -3.0948   -0.1099 N.ar      1 <0>        -0.3173
     23 C14        -8.7194   -3.3242    0.4658 C.3       1 <0>        -0.0806
     24 C15        -8.9189   -1.8567    0.8709 C.3       1 <0>        -0.1569
     25 C16        -8.0644   -0.9748   -0.0444 C.3       1 <0>        -0.1564
     26 C17        -6.5831   -1.1721    0.2795 C.3       1 <0>        -0.1174
     27 H1          1.7023    1.2647   -2.1283 H         1 <0>         0.1537
     28 H2         -0.2572    0.0013   -1.3441 H         1 <0>         0.1426
     29 H3         -2.2846    3.6912   -0.5271 H         1 <0>         0.1919
     30 H4          1.6729    3.7242   -2.1123 H         1 <0>         0.1700
     31 H5         -1.7885   -0.8145   -0.7411 H         1 <0>         0.2683
     32 H6         -4.4819   -0.5775    0.3237 H         1 <0>         0.2976
     33 H7         -1.5283   -4.9042   -0.2062 H         1 <0>         0.2014
     34 H8         -9.2162   -3.5130   -0.4859 H         1 <0>         0.1010
     35 H9         -9.1356   -3.9771    1.2330 H         1 <0>         0.0990
     36 H10        -9.9693   -1.5868    0.7621 H         1 <0>         0.0895
     37 H11        -8.6113   -1.7184    1.9074 H         1 <0>         0.0910
     38 H12        -8.2473   -1.2472   -1.0838 H         1 <0>         0.0909
     39 H13        -8.3321    0.0709    0.1073 H         1 <0>         0.0898
     40 H14        -5.9751   -0.6501   -0.4593 H         1 <0>         0.0965
     41 H15        -6.3706   -0.7765    1.2727 H         1 <0>         0.0971
@<TRIPOS>BOND
     1    1    6 ar
     2    1    2 ar
     3    1   27 1
     4    2    3 ar
     5    2   28 1
     6    3    4 ar
     7    3   10 1
     8    4    5 ar
     9    4   29 1
    10    5    6 ar
    11    5    7 1
    12    6   30 1
    13    7    8 2
    14    7    9 1
    15   10   11 2
    16   10   12 am
    17   12   13 1
    18   12   31 1
    19   13   14 1
    20   13   32 1
    21   14   22 ar
    22   14   15 ar
    23   15   19 ar
    24   15   16 1
    25   16   26 1
    26   16   17 2
    27   17   18 1
    28   17   23 1
    29   18   19 1
    30   19   20 ar
    31   20   21 ar
    32   21   22 ar
    33   21   33 1
    34   23   24 1
    35   23   34 1
    36   23   35 1
    37   24   25 1
    38   24   36 1
    39   24   37 1
    40   25   26 1
    41   25   38 1
    42   25   39 1
    43   26   40 1
    44   26   41 1
@<TRIPOS>MOLECULE
ZINC00730212
   43    46     0     0     0
SMALL
USER_CHARGES

@<TRIPOS>ATOM
      1 C1          5.0011   -2.7888    4.7174 C.3       1 <0>        -0.1930
      2 C2          4.2137   -2.5031    3.4646 C.2       1 <0>         0.0834
      3 C3          4.8616   -2.1181    2.3443 C.2       1 <0>        -0.2476
      4 C4          4.1295   -1.8500    1.1690 C.2       1 <0>         0.1666
      5 C5          2.7576   -1.9871    1.1909 C.2       1 <0>        -0.2529
      6 C6          2.1287   -2.3884    2.3765 C.2       1 <0>         0.3503
      7 O1          0.9144   -2.5135    2.4107 O.2       1 <0>        -0.3745
      8 N1          2.8614   -2.6359    3.4782 N.am      1 <0>        -0.2086
      9 C7          2.1905   -3.0555    4.7111 C.3       1 <0>         0.0118
     10 C8          2.0159   -4.5524    4.7035 C.ar      1 <0>        -0.1751
     11 C9          0.8699   -5.1229    4.1703 C.ar      1 <0>        -0.0586
     12 C10         0.7544   -6.5043    4.1805 C.ar      1 <0>        -0.1896
     13 C11         1.7737   -7.2613    4.7270 C.ar      1 <0>        -0.0374
     14 N2          2.8473   -6.6842    5.2299 N.ar      1 <0>        -0.1663
     15 C12         2.9931   -5.3734    5.2329 C.ar      1 <0>        -0.0411
     16 C13         1.9378   -1.7104   -0.0393 C.3       1 <0>         0.1147
     17 H1          1.1839   -2.4893   -0.1539 H         1 <0>         0.1290
     18 C14         2.8232   -1.6913   -1.2544 C.2       1 <0>        -0.2566
     19 C15         4.1649   -1.5737   -1.1467 C.2       1 <0>         0.2565
     20 O2          4.7744   -1.4665    0.0469 O.3       1 <0>        -0.1466
     21 N3          4.9278   -1.5622   -2.2877 N.pl3     1 <0>        -0.3880
     22 C16         2.2339   -1.8011   -2.5549 C.1       1 <0>        -0.0597
     23 N4          1.7664   -1.8882   -3.5866 N.1       1 <0>        -0.0753
     24 C17         1.2572   -0.3735    0.1040 C.2       1 <0>        -0.1567
     25 C18        -0.1358   -0.1321    0.0957 C.2       1 <0>        -0.1923
     26 C19        -0.3025    1.1936    0.2511 C.2       1 <0>        -0.1101
     27 O3          0.9089    1.7646    0.3525 O.3       1 <0>        -0.0586
     28 C20         1.8585    0.8190    0.2640 C.2       1 <0>        -0.0952
     29 H2          5.2031   -3.8579    4.7836 H         1 <0>         0.1087
     30 H3          5.9436   -2.2422    4.6867 H         1 <0>         0.1052
     31 H4          4.4261   -2.4731    5.5879 H         1 <0>         0.0965
     32 H5          5.9367   -2.0158    2.3481 H         1 <0>         0.1606
     33 H6          2.7944   -2.7645    5.5705 H         1 <0>         0.1034
     34 H7          1.2136   -2.5761    4.7744 H         1 <0>         0.1356
     35 H8          0.0877   -4.5058    3.7534 H         1 <0>         0.1651
     36 H9         -0.1224   -6.9828    3.7698 H         1 <0>         0.1438
     37 H10         1.6899   -8.3379    4.7419 H         1 <0>         0.1618
     38 H11         3.8867   -4.9367    5.6538 H         1 <0>         0.1526
     39 H12         5.8921   -1.4776   -2.2256 H         1 <0>         0.2284
     40 H13         4.5026   -1.6387   -3.1562 H         1 <0>         0.2596
     41 H14        -0.9164   -0.8703   -0.0148 H         1 <0>         0.1606
     42 H15        -1.2496    1.7116    0.2841 H         1 <0>         0.1954
     43 H16         2.9241    0.9875    0.3133 H         1 <0>         0.1943
@<TRIPOS>BOND
     1    1    2 1
     2    1   29 1
     3    1   30 1
     4    1   31 1
     5    2    8 1
     6    2    3 2
     7    3    4 1
     8    3   32 1
     9    4   20 1
    10    4    5 2
    11    5    6 1
    12    5   16 1
    13    6    7 2
    14    6    8 am
    15    8    9 1
    16    9   10 1
    17    9   33 1
    18    9   34 1
    19   10   15 ar
    20   10   11 ar
    21   11   12 ar
    22   11   35 1
    23   12   13 ar
    24   12   36 1
    25   13   14 ar
    26   13   37 1
    27   14   15 ar
    28   15   38 1
    29   16   17 1
    30   16   18 1
    31   16   24 1
    32   18   19 2
    33   18   22 1
    34   19   20 1
    35   19   21 1
    36   21   39 1
    37   21   40 1
    38   22   23 3
    39   24   28 2
    40   24   25 1
    41   25   26 2
    42   25   41 1
    43   26   27 1
    44   26   42 1
    45   27   28 1
    46   28   43 1
@<TRIPOS>MOLECULE
ZINC00730214
   43    46     0     0     0
SMALL
USER_CHARGES

@<TRIPOS>ATOM
      1 C1          4.9171    3.9998    4.7890 C.3       1 <0>        -0.1930
      2 C2          4.1320    3.8150    3.5160 C.2       1 <0>         0.0834
      3 C3          4.7690    3.8709    2.3267 C.2       1 <0>        -0.2477
      4 C4          4.0389    3.6987    1.1324 C.2       1 <0>         0.1665
      5 C5          2.6804    3.4747    1.2066 C.2       1 <0>        -0.2531
      6 C6          2.0625    3.4247    2.4627 C.2       1 <0>         0.3503
      7 O1          0.8602    3.2270    2.5436 O.2       1 <0>        -0.3744
      8 N1          2.7928    3.5939    3.5807 N.am      1 <0>        -0.2087
      9 C7          2.1336    3.5383    4.8878 C.3       1 <0>         0.0121
     10 C8          2.0678    2.1076    5.3568 C.ar      1 <0>        -0.1755
     11 C9          0.9751    1.3146    5.0405 C.ar      1 <0>        -0.0566
     12 C10         0.9596    0.0031    5.4894 C.ar      1 <0>        -0.1887
     13 C11         2.0214   -0.4640    6.2412 C.ar      1 <0>        -0.0371
     14 N2          3.0420    0.3203    6.5271 N.ar      1 <0>        -0.1666
     15 C12         3.0929    1.5712    6.1124 C.ar      1 <0>        -0.0412
     16 C13         1.8635    3.2847   -0.0419 C.3       1 <0>         0.1147
     17 H1          0.9366    3.8519    0.0430 H         1 <0>         0.1290
     18 C14         2.6344    3.7658   -1.2397 C.2       1 <0>        -0.2567
     19 C15         3.9688    3.9707   -1.1830 C.2       1 <0>         0.2562
     20 O2          4.6727    3.7547   -0.0581 O.3       1 <0>        -0.1464
     21 N3          4.6252    4.4103   -2.3055 N.pl3     1 <0>        -0.3881
     22 C16         1.9414    4.0126   -2.4684 C.1       1 <0>        -0.0598
     23 N4          1.3917    4.2085   -3.4431 N.1       1 <0>        -0.0752
     24 C17         1.5407    1.8223   -0.2099 C.2       1 <0>        -0.1573
     25 C18         0.2514    1.2437   -0.2547 C.2       1 <0>        -0.1928
     26 C19         0.4239   -0.0806   -0.4156 C.2       1 <0>        -0.1112
     27 O3          1.7418   -0.3333   -0.4703 O.3       1 <0>        -0.0580
     28 C20         2.4239    0.8169   -0.3461 C.2       1 <0>        -0.0934
     29 H2          5.1947    3.0248    5.1895 H         1 <0>         0.1095
     30 H3          5.8181    4.5765    4.5797 H         1 <0>         0.1049
     31 H4          4.3065    4.5318    5.5185 H         1 <0>         0.0960
     32 H5          5.8339    4.0472    2.2902 H         1 <0>         0.1606
     33 H6          2.7005    4.1304    5.6062 H         1 <0>         0.1029
     34 H7          1.1237    3.9396    4.8028 H         1 <0>         0.1343
     35 H8          0.1573    1.7082    4.4549 H         1 <0>         0.1652
     36 H9          0.1264   -0.6441    5.2586 H         1 <0>         0.1437
     37 H10         2.0151   -1.4833    6.5981 H         1 <0>         0.1617
     38 H11         3.9455    2.1835    6.3665 H         1 <0>         0.1520
     39 H12         5.5831    4.5605   -2.2796 H         1 <0>         0.2283
     40 H13         4.1311    4.5707   -3.1247 H         1 <0>         0.2596
     41 H14        -0.6911    1.7655   -0.1790 H         1 <0>         0.1604
     42 H15        -0.3638   -0.8159   -0.4878 H         1 <0>         0.1949
     43 H16         3.4992    0.9177   -0.3548 H         1 <0>         0.1950
@<TRIPOS>BOND
     1    1    2 1
     2    1   29 1
     3    1   30 1
     4    1   31 1
     5    2    8 1
     6    2    3 2
     7    3    4 1
     8    3   32 1
     9    4   20 1
    10    4    5 2
    11    5    6 1
    12    5   16 1
    13    6    7 2
    14    6    8 am
    15    8    9 1
    16    9   10 1
    17    9   33 1
    18    9   34 1
    19   10   15 ar
    20   10   11 ar
    21   11   12 ar
    22   11   35 1
    23   12   13 ar
    24   12   36 1
    25   13   14 ar
    26   13   37 1
    27   14   15 ar
    28   15   38 1
    29   16   17 1
    30   16   18 1
    31   16   24 1
    32   18   19 2
    33   18   22 1
    34   19   20 1
    35   19   21 1
    36   21   39 1
    37   21   40 1
    38   22   23 3
    39   24   28 2
    40   24   25 1
    41   25   26 2
    42   25   41 1
    43   26   27 1
    44   26   42 1
    45   27   28 1
    46   28   43 1
@<TRIPOS>MOLECULE
ZINC00732046
   42    45     0     0     0
SMALL
USER_CHARGES

@<TRIPOS>ATOM
      1 C1         -1.2498    3.1366    0.0309 C.ar      1 <0>        -0.1579
      2 C2         -1.2157    1.7489    0.0173 C.ar      1 <0>        -0.0646
      3 C3         -0.0126    1.0758    0.0080 C.ar      1 <0>        -0.1510
      4 C4          1.1822    1.7876    0.0004 C.ar      1 <0>         0.1393
      5 C5          1.1452    3.1935    0.0083 C.ar      1 <0>        -0.1637
      6 C6         -0.0909    3.8575    0.0237 C.ar      1 <0>        -0.0617
      7 C7          2.3532    3.9357    0.0003 C.2       1 <0>         0.0036
      8 C8          3.5553    3.2492   -0.0154 C.2       1 <0>        -0.2417
      9 C9          3.5315    1.7819   -0.0230 C.2       1 <0>         0.3605
     10 O1          4.5760    1.1580   -0.0364 O.2       1 <0>        -0.2429
     11 O2          2.3592    1.1260   -0.0149 O.3       1 <0>        -0.1625
     12 C10         4.8344    3.9780   -0.0237 C.2       1 <0>         0.3482
     13 O3          5.8842    3.3638   -0.0375 O.2       1 <0>        -0.2954
     14 N1          4.8422    5.3257   -0.0161 N.am      1 <0>        -0.2726
     15 C11         6.0458    6.0115   -0.0239 C.2       1 <0>        -0.1398
     16 C12         6.2569    7.3835   -0.0238 C.2       1 <0>        -0.2431
     17 C13         7.6326    7.8511   -0.0284 C.2       1 <0>        -0.0644
     18 C14         8.5705    6.8792   -0.0440 C.2       1 <0>        -0.3280
     19 S1          7.6532    5.3650   -0.0439 S.3       1 <0>         0.5244
     20 C15        10.0572    7.0589   -0.0587 C.3       1 <0>        -0.0731
     21 C16        10.3646    8.5165   -0.4314 C.3       1 <0>        -0.1565
     22 C17         9.4872    9.4389    0.4198 C.3       1 <0>        -0.1578
     23 C18         8.0276    9.3227   -0.0229 C.3       1 <0>        -0.1025
     24 C19         5.1336    8.3255   -0.0153 C.2       1 <0>         0.3613
     25 O4          4.6747    8.7157    1.0423 O.2       1 <0>        -0.3640
     26 N2          4.6092    8.7594   -1.1785 N.am      1 <0>        -0.4309
     27 H1         -2.2002    3.6494    0.0428 H         1 <0>         0.1420
     28 H2         -2.1405    1.1911    0.0183 H         1 <0>         0.1448
     29 H3          0.0021   -0.0041    0.0020 H         1 <0>         0.1586
     30 H4         -0.1251    4.9369    0.0303 H         1 <0>         0.1408
     31 H5          2.3359    5.0156    0.0059 H         1 <0>         0.1424
     32 H6          4.0050    5.8155   -0.0051 H         1 <0>         0.2411
     33 H7         10.4635    6.8388    0.9285 H         1 <0>         0.0972
     34 H8         10.5007    6.3895   -0.7958 H         1 <0>         0.0926
     35 H9         11.4156    8.7297   -0.2364 H         1 <0>         0.0839
     36 H10        10.1492    8.6767   -1.4879 H         1 <0>         0.0860
     37 H11         9.5715    9.1527    1.4682 H         1 <0>         0.0915
     38 H12         9.8204   10.4696    0.2979 H         1 <0>         0.0815
     39 H13         7.3903    9.8696    0.6720 H         1 <0>         0.1025
     40 H14         7.9155    9.7371   -1.0248 H         1 <0>         0.0873
     41 H15         4.9750    8.4484   -2.0214 H         1 <0>         0.2202
     42 H16         3.8660    9.3827   -1.1728 H         1 <0>         0.2244
@<TRIPOS>BOND
     1    1    6 ar
     2    1    2 ar
     3    1   27 1
     4    2    3 ar
     5    2   28 1
     6    3    4 ar
     7    3   29 1
     8    4   11 1
     9    4    5 ar
    10    5    6 ar
    11    5    7 1
    12    6   30 1
    13    7    8 2
    14    7   31 1
    15    8    9 1
    16    8   12 1
    17    9   10 2
    18    9   11 1
    19   12   13 2
    20   12   14 am
    21   14   15 1
    22   14   32 1
    23   15   19 1
    24   15   16 2
    25   16   17 1
    26   16   24 1
    27   17   23 1
    28   17   18 2
    29   18   19 1
    30   18   20 1
    31   20   21 1
    32   20   33 1
    33   20   34 1
    34   21   22 1
    35   21   35 1
    36   21   36 1
    37   22   23 1
    38   22   37 1
    39   22   38 1
    40   23   39 1
    41   23   40 1
    42   24   25 2
    43   24   26 am
    44   26   41 1
    45   26   42 1
@<TRIPOS>MOLECULE
ZINC00753072
   43    44     0     0     0
SMALL
USER_CHARGES

@<TRIPOS>ATOM
      1 C1          0.8872    8.4816   -0.7944 C.3       1 <0>        -0.2382
      2 C2          0.9784    6.9804   -0.6977 C.2       1 <0>         0.3033
      3 O1          1.8970    6.3931   -1.2293 O.2       1 <0>        -0.3695
      4 N1          0.0393    6.2905   -0.0206 N.am      1 <0>        -0.3155
      5 C3          0.0714    4.8884   -0.0088 C.ar      1 <0>         0.0623
      6 C4          1.2888    4.2222   -0.0128 C.ar      1 <0>        -0.1735
      7 C5          1.3207    2.8380   -0.0012 C.ar      1 <0>         0.0503
      8 C6          0.1306    2.1141    0.0145 C.ar      1 <0>         0.0481
      9 C7         -1.0865    2.7802    0.0127 C.ar      1 <0>        -0.1712
     10 C8         -1.1182    4.1649    0.0064 C.ar      1 <0>         0.0452
     11 O2         -2.3116    4.8180    0.0095 O.3       1 <0>        -0.2215
     12 C9         -3.4919    4.0126    0.0254 C.3       1 <0>        -0.0634
     13 N2          0.1628    0.7128    0.0263 N.am      1 <0>        -0.3026
     14 C10        -0.7794    0.0228    0.6990 C.2       1 <0>         0.3431
     15 O3         -1.7028    0.6114    1.2273 O.2       1 <0>        -0.3572
     16 C11        -0.6901   -1.4496    0.7946 C.ar      1 <0>        -0.0859
     17 C12         0.3656   -2.1289    0.1843 C.ar      1 <0>        -0.1123
     18 C13         0.4456   -3.5027    0.2814 C.ar      1 <0>        -0.0784
     19 C14        -0.5233   -4.2080    0.9728 C.ar      1 <0>        -0.0909
     20 C15        -1.5752   -3.5413    1.5756 C.ar      1 <0>        -0.0806
     21 C16        -1.6643   -2.1672    1.4906 C.ar      1 <0>        -0.0765
     22 N3         -0.4339   -5.6824    1.0684 N.pl3     1 <0>         0.5452
     23 O4         -1.2852   -6.3060    1.6768 O.2       1 <0>        -0.3492
     24 O5          0.4909   -6.2721    0.5388 O.3       1 <0>        -0.3507
     25 O6          2.5142    2.1850   -0.0047 O.3       1 <0>        -0.2255
     26 C17         3.6944    2.9905   -0.0211 C.3       1 <0>        -0.0636
     27 H1          1.4201    8.9326    0.0427 H         1 <0>         0.1048
     28 H2          1.3349    8.8132   -1.7312 H         1 <0>         0.1180
     29 H3         -0.1594    8.7847   -0.7646 H         1 <0>         0.0879
     30 H4         -0.6589    6.7636    0.4586 H         1 <0>         0.2427
     31 H5          2.2115    4.7835   -0.0247 H         1 <0>         0.1798
     32 H6         -2.0092    2.2190    0.0203 H         1 <0>         0.1765
     33 H7         -3.4958    3.3914    0.9210 H         1 <0>         0.0803
     34 H8         -4.3713    4.6567    0.0262 H         1 <0>         0.1054
     35 H9         -3.5090    3.3755   -0.8589 H         1 <0>         0.0699
     36 H10         0.8631    0.2397   -0.4498 H         1 <0>         0.2431
     37 H11         1.1203   -1.5798   -0.3592 H         1 <0>         0.1472
     38 H12         1.2641   -4.0292   -0.1869 H         1 <0>         0.1695
     39 H13        -2.3284   -4.0978    2.1135 H         1 <0>         0.1715
     40 H14        -2.4856   -1.6480    1.9619 H         1 <0>         0.1728
     41 H15         4.5738    2.3465   -0.0222 H         1 <0>         0.1050
     42 H16         3.6979    3.6118   -0.9167 H         1 <0>         0.0831
     43 H17         3.7117    3.6276    0.8632 H         1 <0>         0.0711
@<TRIPOS>BOND
     1    1    2 1
     2    1   27 1
     3    1   28 1
     4    1   29 1
     5    2    3 2
     6    2    4 am
     7    4    5 1
     8    4   30 1
     9    5   10 ar
    10    5    6 ar
    11    6    7 ar
    12    6   31 1
    13    7    8 ar
    14    7   25 1
    15    8    9 ar
    16    8   13 1
    17    9   10 ar
    18    9   32 1
    19   10   11 1
    20   11   12 1
    21   12   33 1
    22   12   34 1
    23   12   35 1
    24   13   14 am
    25   13   36 1
    26   14   15 2
    27   14   16 1
    28   16   21 ar
    29   16   17 ar
    30   17   18 ar
    31   17   37 1
    32   18   19 ar
    33   18   38 1
    34   19   20 ar
    35   19   22 1
    36   20   21 ar
    37   20   39 1
    38   21   40 1
    39   22   23 2
    40   22   24 1
    41   25   26 1
    42   26   41 1
    43   26   42 1
    44   26   43 1
@<TRIPOS>MOLECULE
ZINC00753986
   43    46     0     0     0
SMALL
USER_CHARGES

@<TRIPOS>ATOM
      1 C1         -2.4352    3.2653    5.6229 C.3       1 <0>        -0.0636
      2 O1         -3.7547    3.2045    5.0777 O.3       1 <0>        -0.2088
      3 C2         -3.9742    2.2938    4.0944 C.ar      1 <0>         0.1226
      4 C3         -2.9363    1.4749    3.6644 C.ar      1 <0>        -0.2378
      5 C4         -3.1517    0.5486    2.6678 C.ar      1 <0>        -0.0417
      6 C5         -4.4151    0.4307    2.0866 C.ar      1 <0>        -0.1169
      7 C6         -5.4585    1.2601    2.5165 C.ar      1 <0>         0.1450
      8 C7         -5.2331    2.1835    3.5230 C.ar      1 <0>        -0.1995
      9 O2         -6.6888    1.1546    1.9521 O.3       1 <0>        -0.2860
     10 C8         -4.6496   -0.5624    1.0161 C.ar      1 <0>         0.1566
     11 C9         -3.7843   -0.6385   -0.0940 C.ar      1 <0>        -0.2111
     12 C10        -4.0551   -1.5903   -1.0765 C.ar      1 <0>         0.0500
     13 N1         -5.0994   -2.3885   -0.9297 N.ar      1 <0>        -0.2763
     14 C11        -5.8932   -2.2908    0.1274 C.ar      1 <0>         0.2284
     15 N2         -5.6813   -1.4007    1.0839 N.ar      1 <0>        -0.2750
     16 N3         -6.9768   -3.1452    0.2339 N.pl3     1 <0>        -0.3773
     17 C12        -2.6218    0.2726   -0.2167 C.ar      1 <0>        -0.0289
     18 C13        -2.8081    1.6536   -0.1696 C.ar      1 <0>        -0.1084
     19 C14        -1.7252    2.4997   -0.2883 C.ar      1 <0>        -0.1231
     20 C15        -0.4471    1.9815   -0.4478 C.ar      1 <0>         0.0166
     21 C16        -0.2550    0.6046   -0.4933 C.ar      1 <0>         0.0150
     22 C17        -1.3396   -0.2489   -0.3791 C.ar      1 <0>        -0.1234
     23 O3          0.9915    0.0799   -0.6486 O.3       1 <0>        -0.2063
     24 C18         2.0062    0.9650   -1.1351 C.3       1 <0>        -0.0516
     25 C19         1.9103    2.2815   -0.3520 C.3       1 <0>        -0.0520
     26 O4          0.6072    2.8351   -0.5639 O.3       1 <0>        -0.2047
     27 H1         -2.1760    2.2990    6.0556 H         1 <0>         0.0695
     28 H2         -1.7263    3.5113    4.8323 H         1 <0>         0.0710
     29 H3         -2.3968    4.0319    6.3968 H         1 <0>         0.1096
     30 H4         -1.9582    1.5651    4.1133 H         1 <0>         0.1397
     31 H5         -2.3432   -0.0860    2.3362 H         1 <0>         0.1469
     32 H6         -6.0366    2.8216    3.8600 H         1 <0>         0.1557
     33 H7         -7.2722    0.5238    2.3956 H         1 <0>         0.2438
     34 H8         -3.4180   -1.6771   -1.9443 H         1 <0>         0.1713
     35 H9         -7.5674   -3.0861    1.0012 H         1 <0>         0.2366
     36 H10        -7.1458   -3.8030   -0.4586 H         1 <0>         0.2398
     37 H11        -3.8004    2.0608   -0.0430 H         1 <0>         0.1505
     38 H12        -1.8715    3.5691   -0.2515 H         1 <0>         0.1474
     39 H13        -1.1920   -1.3181   -0.4161 H         1 <0>         0.1472
     40 H14         2.9884    0.5174   -0.9830 H         1 <0>         0.1207
     41 H15         1.8496    1.1557   -2.1968 H         1 <0>         0.0950
     42 H16         2.0597    2.0889    0.7104 H         1 <0>         0.0922
     43 H17         2.6683    2.9782   -0.7100 H         1 <0>         0.1211
@<TRIPOS>BOND
     1    1    2 1
     2    1   27 1
     3    1   28 1
     4    1   29 1
     5    2    3 1
     6    3    8 ar
     7    3    4 ar
     8    4    5 ar
     9    4   30 1
    10    5    6 ar
    11    5   31 1
    12    6    7 ar
    13    6   10 1
    14    7    8 ar
    15    7    9 1
    16    8   32 1
    17    9   33 1
    18   10   15 ar
    19   10   11 ar
    20   11   12 ar
    21   11   17 1
    22   12   13 ar
    23   12   34 1
    24   13   14 ar
    25   14   15 ar
    26   14   16 1
    27   16   35 1
    28   16   36 1
    29   17   22 ar
    30   17   18 ar
    31   18   19 ar
    32   18   37 1
    33   19   20 ar
    34   19   38 1
    35   20   26 1
    36   20   21 ar
    37   21   22 ar
    38   21   23 1
    39   22   39 1
    40   23   24 1
    41   24   25 1
    42   24   40 1
    43   24   41 1
    44   25   26 1
    45   25   42 1
    46   25   43 1
@<TRIPOS>MOLECULE
ZINC00754802
   45    47     0     0     0
SMALL
USER_CHARGES

@<TRIPOS>ATOM
      1 C1          5.2998   -0.6886   -1.9930 C.ar      1 <0>        -0.1582
      2 C2          4.8573   -1.8174   -2.6517 C.ar      1 <0>        -0.0562
      3 C3          3.8224   -2.5789   -2.1067 C.ar      1 <0>        -0.1522
      4 C4          3.2458   -2.1957   -0.8943 C.ar      1 <0>         0.0331
      5 C5          3.6941   -1.0622   -0.2487 C.ar      1 <0>        -0.7675
      6 C6          4.7203   -0.3114   -0.7948 C.ar      1 <0>        -0.0059
      7 S1          2.9634   -0.5732    1.2782 S.o2      1 <0>         2.7614
      8 O1          3.9317    0.2137    1.9582 O.2       1 <0>        -0.9141
      9 O2          2.3952   -1.7435    1.8498 O.2       1 <0>        -0.9063
     10 N1          1.7022    0.4370    0.9161 N.pl3     1 <0>        -0.8357
     11 C7          0.3521   -0.0998    0.6974 C.3       1 <0>        -0.0013
     12 C8         -0.1626    0.3971   -0.6572 C.3       1 <0>        -0.1781
     13 C9         -0.0788    1.9245   -0.7012 C.3       1 <0>        -0.1552
     14 C10         1.3799    2.3617   -0.5488 C.3       1 <0>        -0.1784
     15 C11         1.9121    1.8871    0.8070 C.3       1 <0>        -0.0003
     16 C12         3.3433   -3.7894   -2.8068 C.2       1 <0>         0.3460
     17 O3          2.4418   -4.4507   -2.3297 O.2       1 <0>        -0.3401
     18 N2          3.9061   -4.1599   -3.9740 N.am      1 <0>        -0.3251
     19 C13         3.5306   -5.3626   -4.5806 C.ar      1 <0>         0.0757
     20 C14         3.5084   -5.4658   -5.9661 C.ar      1 <0>        -0.1730
     21 C15         3.1380   -6.6539   -6.5651 C.ar      1 <0>        -0.0978
     22 C16         2.7885   -7.7428   -5.7888 C.ar      1 <0>        -0.1701
     23 C17         2.8088   -7.6456   -4.4046 C.ar      1 <0>         0.0901
     24 C18         3.1851   -6.4565   -3.7996 C.ar      1 <0>        -0.1535
     25 O4          2.4649   -8.7171   -3.6427 O.3       1 <0>        -0.2860
     26 H1          6.1005   -0.0984   -2.4136 H         1 <0>         0.1408
     27 H2          5.3105   -2.1108   -3.5870 H         1 <0>         0.1277
     28 H3          2.4478   -2.7833   -0.4648 H         1 <0>         0.1764
     29 H4          5.0706    0.5728   -0.2831 H         1 <0>         0.1524
     30 H5         -0.3116    0.2464    1.4897 H         1 <0>         0.0914
     31 H6          0.3876   -1.1892    0.6976 H         1 <0>         0.1104
     32 H7         -1.1988    0.0856   -0.7892 H         1 <0>         0.0916
     33 H8          0.4488   -0.0240   -1.4554 H         1 <0>         0.0874
     34 H9         -0.4674    2.2822   -1.6547 H         1 <0>         0.0835
     35 H10        -0.6705    2.3442    0.1123 H         1 <0>         0.0845
     36 H11         1.9768    1.9222   -1.3480 H         1 <0>         0.0847
     37 H12         1.4416    3.4486   -0.6037 H         1 <0>         0.0884
     38 H13         1.3756    2.3953    1.6083 H         1 <0>         0.0920
     39 H14         2.9769    2.1087    0.8795 H         1 <0>         0.1040
     40 H15         4.5715   -3.5922   -4.3934 H         1 <0>         0.2324
     41 H16         3.7814   -4.6166   -6.5750 H         1 <0>         0.1292
     42 H17         3.1217   -6.7324   -7.6421 H         1 <0>         0.1343
     43 H18         2.4997   -8.6706   -6.2600 H         1 <0>         0.1403
     44 H19         3.2054   -6.3802   -2.7225 H         1 <0>         0.1703
     45 H20         3.2079   -9.2930   -3.4159 H         1 <0>         0.2272
@<TRIPOS>BOND
     1    1    6 ar
     2    1    2 ar
     3    1   26 1
     4    2    3 ar
     5    2   27 1
     6    3    4 ar
     7    3   16 1
     8    4    5 ar
     9    4   28 1
    10    5    6 ar
    11    5    7 1
    12    6   29 1
    13    7    8 2
    14    7    9 2
    15    7   10 1
    16   10   15 1
    17   10   11 1
    18   11   12 1
    19   11   30 1
    20   11   31 1
    21   12   13 1
    22   12   32 1
    23   12   33 1
    24   13   14 1
    25   13   34 1
    26   13   35 1
    27   14   15 1
    28   14   36 1
    29   14   37 1
    30   15   38 1
    31   15   39 1
    32   16   17 2
    33   16   18 am
    34   18   19 1
    35   18   40 1
    36   19   24 ar
    37   19   20 ar
    38   20   21 ar
    39   20   41 1
    40   21   22 ar
    41   21   42 1
    42   22   23 ar
    43   22   43 1
    44   23   24 ar
    45   23   25 1
    46   24   44 1
    47   25   45 1
@<TRIPOS>MOLECULE
ZINC00755030
   46    48     0     0     0
SMALL
USER_CHARGES

@<TRIPOS>ATOM
      1 C1         -3.3013   -2.5169   -1.2083 C.3       1 <0>        -0.2063
      2 C2         -2.4606   -2.8699    0.0203 C.3       1 <0>         0.0695
      3 C3         -3.2379   -2.6012    1.2936 C.2       1 <0>         0.3188
      4 O1         -3.6700   -1.5352    1.6766 O.2       1 <0>        -0.2881
      5 N1         -3.3451   -3.7984    1.9109 N.am      1 <0>        -0.3579
      6 C4         -2.7526   -4.7712    1.2091 C.2       1 <0>         0.4035
      7 O2         -2.7190   -5.9340    1.5614 O.2       1 <0>        -0.3708
      8 N2         -2.1982   -4.3186    0.0700 N.am      1 <0>        -0.3960
      9 C5         -1.1670   -2.0967    0.0156 C.ar      1 <0>        -0.0612
     10 C6          0.0406   -2.7705    0.0111 C.ar      1 <0>        -0.1507
     11 C7          1.2289   -2.0641    0.0072 C.ar      1 <0>        -0.0873
     12 C8          1.2126   -0.6825    0.0011 C.ar      1 <0>        -0.2174
     13 C9          0.0026   -0.0043    0.0118 C.ar      1 <0>         0.0987
     14 C10        -1.1887   -0.7157    0.0162 C.ar      1 <0>        -0.1286
     15 O3         -0.0160    1.3545    0.0125 O.3       1 <0>        -0.1734
     16 C11         1.2482    2.0207    0.0078 C.3       1 <0>        -0.0367
     17 C12         1.0303    3.5119    0.0093 C.2       1 <0>         0.2988
     18 O4         -0.0968    3.9600    0.0138 O.2       1 <0>        -0.3189
     19 N3          2.0878    4.3474    0.0055 N.am      1 <0>        -0.3260
     20 C13         1.8873    5.7308   -0.0909 C.ar      1 <0>         0.0188
     21 C14         2.7953    6.5173   -0.7870 C.ar      1 <0>        -0.1199
     22 C15         2.5943    7.8799   -0.8861 C.ar      1 <0>        -0.2065
     23 C16         1.4915    8.4645   -0.2807 C.ar      1 <0>         0.0852
     24 C17         0.5867    7.6799    0.4194 C.ar      1 <0>        -0.1421
     25 C18         0.7834    6.3164    0.5144 C.ar      1 <0>        -0.0875
     26 O5          1.2971    9.8070   -0.3738 O.3       1 <0>        -0.2105
     27 C19         2.2682   10.5535   -1.1098 C.3       1 <0>        -0.0629
     28 H1         -2.7449   -2.7639   -2.1124 H         1 <0>         0.0931
     29 H2         -4.2314   -3.0850   -1.1875 H         1 <0>         0.0913
     30 H3         -3.5266   -1.4505   -1.2001 H         1 <0>         0.1072
     31 H4         -3.7969   -3.9354    2.7582 H         1 <0>         0.2705
     32 H5         -1.7187   -4.8438   -0.5897 H         1 <0>         0.2771
     33 H6          0.0554   -3.8504    0.0110 H         1 <0>         0.1373
     34 H7          2.1707   -2.5926    0.0041 H         1 <0>         0.1350
     35 H8          2.1412   -0.1311   -0.0068 H         1 <0>         0.1316
     36 H9         -2.1321   -0.1899    0.0204 H         1 <0>         0.1658
     37 H10         1.8127    1.7351    0.8955 H         1 <0>         0.0943
     38 H11         1.8057    1.7358   -0.8845 H         1 <0>         0.0946
     39 H12         2.9877    3.9911    0.0695 H         1 <0>         0.2283
     40 H13         3.6565    6.0630   -1.2544 H         1 <0>         0.1283
     41 H14         3.2980    8.4912   -1.4316 H         1 <0>         0.1368
     42 H15        -0.2721    8.1355    0.8899 H         1 <0>         0.1500
     43 H16         0.0787    5.7056    1.0591 H         1 <0>         0.1713
     44 H17         1.9944   11.6086   -1.1063 H         1 <0>         0.1085
     45 H18         3.2476   10.4308   -0.6474 H         1 <0>         0.0663
     46 H19         2.3033   10.1907   -2.1370 H         1 <0>         0.0679
@<TRIPOS>BOND
     1    1    2 1
     2    1   28 1
     3    1   29 1
     4    1   30 1
     5    2    8 1
     6    2    3 1
     7    2    9 1
     8    3    4 2
     9    3    5 am
    10    5    6 am
    11    5   31 1
    12    6    7 2
    13    6    8 am
    14    8   32 1
    15    9   14 ar
    16    9   10 ar
    17   10   11 ar
    18   10   33 1
    19   11   12 ar
    20   11   34 1
    21   12   13 ar
    22   12   35 1
    23   13   14 ar
    24   13   15 1
    25   14   36 1
    26   15   16 1
    27   16   17 1
    28   16   37 1
    29   16   38 1
    30   17   18 2
    31   17   19 am
    32   19   20 1
    33   19   39 1
    34   20   25 ar
    35   20   21 ar
    36   21   22 ar
    37   21   40 1
    38   22   23 ar
    39   22   41 1
    40   23   24 ar
    41   23   26 1
    42   24   25 ar
    43   24   42 1
    44   25   43 1
    45   26   27 1
    46   27   44 1
    47   27   45 1
    48   27   46 1
@<TRIPOS>MOLECULE
ZINC00773601
   42    44     0     0     0
SMALL
USER_CHARGES

@<TRIPOS>ATOM
      1 C1          4.0700   -5.9239    3.9839 C.3       1 <0>        -0.2070
      2 C2          3.7425   -5.5078    2.5485 C.3       1 <0>        -0.1946
      3 C3          3.0188   -4.1598    2.5607 C.3       1 <0>         0.0243
      4 H1          3.6221   -3.4284    3.0983 H         1 <0>         0.1254
      5 C4          2.8021   -3.6842    1.1228 C.3       1 <0>        -0.0436
      6 N1          2.2175   -2.3409    1.1356 N.am      1 <0>        -0.3873
      7 C5          1.9380   -1.7166   -0.0257 C.2       1 <0>         0.3741
      8 O1          2.1711   -2.2686   -1.0848 O.2       1 <0>        -0.3477
      9 C6          1.3524   -0.3709   -0.0128 C.2       1 <0>        -0.2473
     10 C7          2.0402    0.9357   -0.0124 C.2       1 <0>        -0.0539
     11 N2          1.0844    1.8299    0.0015 N.2       1 <0>        -0.0226
     12 O2         -0.0161    1.3374    0.0094 O.3       1 <0>         0.0559
     13 C8          0.0021   -0.0041    0.0020 C.2       1 <0>         0.0448
     14 C9         -1.1619   -0.9066    0.0079 C.2       1 <0>        -0.1337
     15 C10        -2.5817   -0.5257    0.0294 C.2       1 <0>        -0.1929
     16 C11        -3.2730   -1.6759    0.0231 C.2       1 <0>        -0.0921
     17 O3         -2.4130   -2.7061    0.0097 O.3       1 <0>        -0.0522
     18 C12        -1.1477   -2.2711    0.0004 C.2       1 <0>        -0.0365
     19 C13         3.5024    1.1823   -0.0258 C.ar      1 <0>        -0.0265
     20 C14         4.3624    0.3238    0.6572 C.ar      1 <0>        -0.0816
     21 C15         5.7223    0.5546    0.6385 C.ar      1 <0>        -0.1695
     22 C16         6.2330    1.6434   -0.0499 C.ar      1 <0>         0.1100
     23 C17         5.3813    2.5024   -0.7259 C.ar      1 <0>        -0.1693
     24 C18         4.0205    2.2766   -0.7166 C.ar      1 <0>        -0.0683
     25 F1          7.5650    1.8683   -0.0617 F         1 <0>        -0.1035
     26 O4          1.7542   -4.3040    3.2104 O.3       1 <0>        -0.3456
     27 H2          4.7112   -5.1714    4.4430 H         1 <0>         0.0759
     28 H3          3.1466   -6.0125    4.5562 H         1 <0>         0.0875
     29 H4          4.5856   -6.8842    3.9752 H         1 <0>         0.0766
     30 H5          3.1013   -6.2603    2.0894 H         1 <0>         0.0849
     31 H6          4.6659   -5.4192    1.9762 H         1 <0>         0.0917
     32 H7          2.1263   -4.3697    0.6113 H         1 <0>         0.0914
     33 H8          3.7584   -3.6594    0.6003 H         1 <0>         0.1038
     34 H9          2.0317   -1.9009    1.9798 H         1 <0>         0.2378
     35 H10        -2.9860    0.4757    0.0442 H         1 <0>         0.1711
     36 H11        -4.3497   -1.7593    0.0320 H         1 <0>         0.2047
     37 H12        -0.2654   -2.8939   -0.0107 H         1 <0>         0.2147
     38 H13         3.9649   -0.5227    1.1974 H         1 <0>         0.1395
     39 H14         6.3896   -0.1120    1.1646 H         1 <0>         0.1467
     40 H15         5.7835    3.3502   -1.2606 H         1 <0>         0.1499
     41 H16         3.3574    2.9468   -1.2434 H         1 <0>         0.1521
     42 H17         1.1639   -4.9410    2.7851 H         1 <0>         0.2128
@<TRIPOS>BOND
     1    1    2 1
     2    1   27 1
     3    1   28 1
     4    1   29 1
     5    2    3 1
     6    2   30 1
     7    2   31 1
     8    3    4 1
     9    3    5 1
    10    3   26 1
    11    5    6 1
    12    5   32 1
    13    5   33 1
    14    6    7 am
    15    6   34 1
    16    7    8 2
    17    7    9 1
    18    9   13 2
    19    9   10 1
    20   10   11 2
    21   10   19 1
    22   11   12 1
    23   12   13 1
    24   13   14 1
    25   14   18 2
    26   14   15 1
    27   15   16 2
    28   15   35 1
    29   16   17 1
    30   16   36 1
    31   17   18 1
    32   18   37 1
    33   19   24 ar
    34   19   20 ar
    35   20   21 ar
    36   20   38 1
    37   21   22 ar
    38   21   39 1
    39   22   23 ar
    40   22   25 1
    41   23   24 ar
    42   23   40 1
    43   24   41 1
    44   26   42 1
@<TRIPOS>MOLECULE
ZINC00773686
   45    47     0     0     0
SMALL
USER_CHARGES

@<TRIPOS>ATOM
      1 C1          2.3666   -0.1501    1.2280 C.3       1 <0>        -0.2013
      2 C2          2.4238    0.7372   -0.0171 C.3       1 <0>        -0.0826
      3 C3          2.3427   -0.1367   -1.2704 C.3       1 <0>        -0.2006
      4 C4          1.2475    1.7155   -0.0006 C.3       1 <0>         0.0002
      5 N1         -0.0111    0.9658    0.0074 N.am      1 <0>        -0.3803
      6 C5         -1.1873    1.6238    0.0165 C.2       1 <0>         0.3760
      7 O1         -1.2038    2.8405    0.0232 O.2       1 <0>        -0.3601
      8 C6         -2.4482    0.8728    0.0184 C.2       1 <0>        -0.2502
      9 C7         -3.2472    0.4064   -1.1324 C.2       1 <0>        -0.0525
     10 N2         -4.2769   -0.2112   -0.6113 N.2       1 <0>        -0.0228
     11 O2         -4.2606   -0.2114    0.5943 O.3       1 <0>         0.0556
     12 C8         -3.1919    0.4136    1.1112 C.2       1 <0>         0.0436
     13 C9         -2.8688    0.5844    2.5381 C.2       1 <0>        -0.1354
     14 C10        -3.6501    0.1089    3.6892 C.2       1 <0>        -0.1932
     15 C11        -2.9695    0.4911    4.7808 C.2       1 <0>        -0.0924
     16 O3         -1.8659    1.1540    4.4017 O.3       1 <0>        -0.0513
     17 C12        -1.7849    1.2220    3.0678 C.2       1 <0>        -0.0370
     18 C13        -2.9469    0.5971   -2.5721 C.ar      1 <0>        -0.0365
     19 C14        -2.3396    1.7730   -3.0097 C.ar      1 <0>        -0.0778
     20 C15        -2.0573    1.9439   -4.3491 C.ar      1 <0>        -0.1710
     21 C16        -2.3861    0.9532   -5.2605 C.ar      1 <0>         0.1091
     22 C17        -2.9951   -0.2149   -4.8307 C.ar      1 <0>        -0.1739
     23 C18        -3.2763   -0.3966   -3.4925 C.ar      1 <0>        -0.0732
     24 F1         -2.1125    1.1270   -6.5721 F         1 <0>        -0.1041
     25 C19         3.7382    1.5202   -0.0255 C.3       1 <0>         0.0116
     26 O4          4.8368    0.6065   -0.0409 O.3       1 <0>        -0.3528
     27 H1          1.4302   -0.7079    1.2339 H         1 <0>         0.0672
     28 H2          3.2046   -0.8471    1.2162 H         1 <0>         0.0998
     29 H3          2.4243    0.4725    2.1208 H         1 <0>         0.0754
     30 H4          2.3835    0.4955   -2.1574 H         1 <0>         0.0783
     31 H5          3.1807   -0.8337   -1.2821 H         1 <0>         0.0985
     32 H6          1.4063   -0.6945   -1.2644 H         1 <0>         0.0689
     33 H7          1.2883    2.3477   -0.8877 H         1 <0>         0.0970
     34 H8          1.3053    2.3381    0.8922 H         1 <0>         0.0908
     35 H9          0.0021   -0.0041    0.0020 H         1 <0>         0.2355
     36 H10        -4.5807   -0.4384    3.6618 H         1 <0>         0.1711
     37 H11        -3.2652    0.2999    5.8018 H         1 <0>         0.2048
     38 H12        -0.9963    1.7006    2.5062 H         1 <0>         0.2162
     39 H13        -2.0871    2.5476   -2.3007 H         1 <0>         0.1613
     40 H14        -1.5834    2.8531   -4.6886 H         1 <0>         0.1501
     41 H15        -3.2502   -0.9842   -5.5446 H         1 <0>         0.1486
     42 H16        -3.7512   -1.3072   -3.1584 H         1 <0>         0.1492
     43 H17         3.7790    2.1523   -0.9125 H         1 <0>         0.0638
     44 H18         3.7960    2.1428    0.8674 H         1 <0>         0.0624
     45 H19         5.7041    1.0342   -0.0469 H         1 <0>         0.2139
@<TRIPOS>BOND
     1    1    2 1
     2    1   27 1
     3    1   28 1
     4    1   29 1
     5    2    3 1
     6    2    4 1
     7    2   25 1
     8    3   30 1
     9    3   31 1
    10    3   32 1
    11    4    5 1
    12    4   33 1
    13    4   34 1
    14    5    6 am
    15    5   35 1
    16    6    7 2
    17    6    8 1
    18    8   12 2
    19    8    9 1
    20    9   10 2
    21    9   18 1
    22   10   11 1
    23   11   12 1
    24   12   13 1
    25   13   17 2
    26   13   14 1
    27   14   15 2
    28   14   36 1
    29   15   16 1
    30   15   37 1
    31   16   17 1
    32   17   38 1
    33   18   23 ar
    34   18   19 ar
    35   19   20 ar
    36   19   39 1
    37   20   21 ar
    38   20   40 1
    39   21   22 ar
    40   21   24 1
    41   22   23 ar
    42   22   41 1
    43   23   42 1
    44   25   26 1
    45   25   43 1
    46   25   44 1
    47   26   45 1
@<TRIPOS>MOLECULE
ZINC00774161
   46    48     0     0     0
SMALL
USER_CHARGES

@<TRIPOS>ATOM
      1 C1          4.0698   -5.9228    3.9856 C.3       1 <0>        -0.2070
      2 C2          3.7421   -5.5072    2.5500 C.3       1 <0>        -0.1947
      3 C3          3.0186   -4.1591    2.5619 C.3       1 <0>         0.0243
      4 H1          3.6221   -3.4276    3.0992 H         1 <0>         0.1250
      5 C4          2.8018   -3.6840    1.1238 C.3       1 <0>        -0.0431
      6 N1          2.2173   -2.3407    1.1362 N.am      1 <0>        -0.3878
      7 C5          1.9377   -1.7167   -0.0252 C.2       1 <0>         0.3758
      8 O1          2.1707   -2.2691   -1.0842 O.2       1 <0>        -0.3492
      9 C6          1.3523   -0.3710   -0.0128 C.2       1 <0>        -0.2490
     10 C7          2.0403    0.9356   -0.0124 C.2       1 <0>        -0.0448
     11 N2          1.0844    1.8300    0.0015 N.2       1 <0>        -0.0276
     12 O2         -0.0161    1.3374    0.0094 O.3       1 <0>         0.0541
     13 C8          0.0021   -0.0041    0.0020 C.2       1 <0>         0.0416
     14 C9         -1.1619   -0.9066    0.0083 C.2       1 <0>        -0.1314
     15 C10        -2.5817   -0.5256    0.0304 C.2       1 <0>        -0.1930
     16 C11        -3.2731   -1.6757    0.0251 C.2       1 <0>        -0.0933
     17 O3         -2.4131   -2.7060    0.0111 O.3       1 <0>        -0.0533
     18 C12        -1.1478   -2.2711    0.0008 C.2       1 <0>        -0.0387
     19 C13         3.5021    1.1821   -0.0250 C.ar      1 <0>        -0.0541
     20 C14         4.3614    0.3230    0.6591 C.ar      1 <0>        -0.0662
     21 C15         5.7208    0.5513    0.6403 C.ar      1 <0>        -0.2244
     22 C16         6.2337    1.6423   -0.0491 C.ar      1 <0>         0.1090
     23 C17         5.3799    2.5032   -0.7262 C.ar      1 <0>        -0.1615
     24 C18         4.0201    2.2766   -0.7163 C.ar      1 <0>        -0.0566
     25 O4          7.5730    1.8681   -0.0607 O.3       1 <0>        -0.2089
     26 C19         8.3931    0.9432    0.6564 C.3       1 <0>        -0.0636
     27 O5          1.7540   -4.3030    3.2118 O.3       1 <0>        -0.3454
     28 H2          4.5853   -6.8832    3.9772 H         1 <0>         0.0760
     29 H3          4.7111   -5.1702    4.4444 H         1 <0>         0.0753
     30 H4          3.1464   -6.0111    4.5580 H         1 <0>         0.0878
     31 H5          3.1008   -6.2598    2.0913 H         1 <0>         0.0851
     32 H6          4.6655   -5.4189    1.9776 H         1 <0>         0.0909
     33 H7          2.1259   -4.3696    0.6126 H         1 <0>         0.0910
     34 H8          3.7580   -3.6594    0.6012 H         1 <0>         0.1028
     35 H9          2.0316   -1.9003    1.9803 H         1 <0>         0.2377
     36 H10        -2.9859    0.4758    0.0450 H         1 <0>         0.1708
     37 H11        -4.3498   -1.7591    0.0351 H         1 <0>         0.2040
     38 H12        -0.2655   -2.8939   -0.0110 H         1 <0>         0.2145
     39 H13         3.9627   -0.5231    1.1990 H         1 <0>         0.1333
     40 H14         6.3873   -0.1165    1.1659 H         1 <0>         0.1364
     41 H15         5.7817    3.3508   -1.2615 H         1 <0>         0.1485
     42 H16         3.3566    2.9465   -1.2431 H         1 <0>         0.1496
     43 H17         8.1054    0.9420    1.7078 H         1 <0>         0.0682
     44 H18         8.2610   -0.0564    0.2423 H         1 <0>         0.0693
     45 H19         9.4384    1.2387    0.5661 H         1 <0>         0.1098
     46 H20         1.1636   -4.9400    2.7868 H         1 <0>         0.2129
@<TRIPOS>BOND
     1    1    2 1
     2    1   28 1
     3    1   29 1
     4    1   30 1
     5    2    3 1
     6    2   31 1
     7    2   32 1
     8    3    4 1
     9    3    5 1
    10    3   27 1
    11    5    6 1
    12    5   33 1
    13    5   34 1
    14    6    7 am
    15    6   35 1
    16    7    8 2
    17    7    9 1
    18    9   13 2
    19    9   10 1
    20   10   11 2
    21   10   19 1
    22   11   12 1
    23   12   13 1
    24   13   14 1
    25   14   18 2
    26   14   15 1
    27   15   16 2
    28   15   36 1
    29   16   17 1
    30   16   37 1
    31   17   18 1
    32   18   38 1
    33   19   24 ar
    34   19   20 ar
    35   20   21 ar
    36   20   39 1
    37   21   22 ar
    38   21   40 1
    39   22   23 ar
    40   22   25 1
    41   23   24 ar
    42   23   41 1
    43   24   42 1
    44   25   26 1
    45   26   43 1
    46   26   44 1
    47   26   45 1
    48   27   46 1
@<TRIPOS>MOLECULE
ZINC00778548
   47    49     0     0     0
SMALL
USER_CHARGES

@<TRIPOS>ATOM
      1 C1          7.8867    4.8813   -0.5049 C.3       1 <0>        -0.2026
      2 C2          6.4750    5.3337   -0.1262 C.3       1 <0>        -0.0669
      3 C3          6.0946    6.5636   -0.9530 C.3       1 <0>        -0.2028
      4 C4          6.4347    5.6871    1.3619 C.3       1 <0>        -0.2060
      5 C5          5.4840    4.2028   -0.4087 C.3       1 <0>        -0.0951
      6 H1          5.5077    3.9528   -1.4694 H         1 <0>         0.1018
      7 C6          5.8625    2.9703    0.4176 C.3       1 <0>        -0.1602
      8 C7          5.0367    1.7655   -0.0369 C.3       1 <0>        -0.1010
      9 C8          3.5618    2.1477   -0.0208 C.2       1 <0>        -0.0653
     10 C9          3.1789    3.4431   -0.0100 C.2       1 <0>        -0.3231
     11 S1          1.4094    3.3920    0.0074 S.3       1 <0>         0.5028
     12 C10         1.1790    1.6747   -0.0002 C.2       1 <0>        -0.1437
     13 C11         2.4766    1.1817   -0.0096 C.2       1 <0>        -0.2341
     14 C12         2.7421   -0.2602   -0.0127 C.2       1 <0>         0.3614
     15 O1          2.8455   -0.8577   -1.0681 O.2       1 <0>        -0.3599
     16 N1          2.8717   -0.9241    1.1530 N.am      1 <0>        -0.4291
     17 N2         -0.0111    0.9658    0.0074 N.am      1 <0>        -0.2484
     18 C13        -1.1873    1.6238    0.0165 C.2       1 <0>         0.3581
     19 O2         -1.2038    2.8389    0.0232 O.2       1 <0>        -0.3378
     20 C14        -2.4596    0.8660    0.0184 C.ar      1 <0>        -0.1101
     21 C15        -3.6780    1.5448    0.0279 C.ar      1 <0>        -0.0353
     22 N3         -4.8100    0.8644    0.0291 N.ar      1 <0>        -0.1260
     23 C16        -4.7884   -0.4569    0.0214 C.ar      1 <0>        -0.0784
     24 C17        -3.5783   -1.1351    0.0124 C.ar      1 <0>        -0.1075
     25 N4         -2.4439   -0.4641    0.0056 N.ar      1 <0>        -0.1186
     26 C18         4.0685    4.6479   -0.0134 C.3       1 <0>        -0.0741
     27 H2          7.9154    4.6295   -1.5650 H         1 <0>         0.0758
     28 H3          8.5927    5.6870   -0.3036 H         1 <0>         0.0749
     29 H4          8.1577    4.0051    0.0841 H         1 <0>         0.0763
     30 H5          5.0889    6.8859   -0.6832 H         1 <0>         0.0745
     31 H6          6.8006    7.3693   -0.7517 H         1 <0>         0.0750
     32 H7          6.1233    6.3118   -2.0131 H         1 <0>         0.0760
     33 H8          6.7058    4.8110    1.9509 H         1 <0>         0.0766
     34 H9          7.1407    6.4929    1.5632 H         1 <0>         0.0745
     35 H10         5.4290    6.0094    1.6317 H         1 <0>         0.0759
     36 H11         5.6663    3.1668    1.4717 H         1 <0>         0.0867
     37 H12         6.9223    2.7548    0.2819 H         1 <0>         0.0888
     38 H13         5.2051    0.9298    0.6424 H         1 <0>         0.0884
     39 H14         5.3297    1.4821   -1.0478 H         1 <0>         0.1039
     40 H15         2.7893   -0.4479    1.9941 H         1 <0>         0.2190
     41 H16         3.0474   -1.8780    1.1509 H         1 <0>         0.2263
     42 H17         0.0021   -0.0041    0.0020 H         1 <0>         0.2658
     43 H18        -3.6958    2.6246    0.0346 H         1 <0>         0.1970
     44 H19        -5.7158   -1.0104    0.0224 H         1 <0>         0.1748
     45 H20        -3.5657   -2.2150    0.0068 H         1 <0>         0.1753
     46 H21         3.6976    5.3762   -0.7345 H         1 <0>         0.0963
     47 H22         4.0881    5.0927    0.9815 H         1 <0>         0.1001
@<TRIPOS>BOND
     1    1    2 1
     2    1   27 1
     3    1   28 1
     4    1   29 1
     5    2    3 1
     6    2    4 1
     7    2    5 1
     8    3   30 1
     9    3   31 1
    10    3   32 1
    11    4   33 1
    12    4   34 1
    13    4   35 1
    14    5    6 1
    15    5   26 1
    16    5    7 1
    17    7    8 1
    18    7   36 1
    19    7   37 1
    20    8    9 1
    21    8   38 1
    22    8   39 1
    23    9   13 1
    24    9   10 2
    25   10   11 1
    26   10   26 1
    27   11   12 1
    28   12   13 2
    29   12   17 1
    30   13   14 1
    31   14   15 2
    32   14   16 am
    33   16   40 1
    34   16   41 1
    35   17   18 am
    36   17   42 1
    37   18   19 2
    38   18   20 1
    39   20   25 ar
    40   20   21 ar
    41   21   22 ar
    42   21   43 1
    43   22   23 ar
    44   23   24 ar
    45   23   44 1
    46   24   25 ar
    47   24   45 1
    48   26   46 1
    49   26   47 1
@<TRIPOS>MOLECULE
ZINC00778934
   48    50     0     0     0
SMALL
USER_CHARGES

@<TRIPOS>ATOM
      1 C1         -2.2505   -4.8842    8.7225 C.3       1 <0>        -0.1799
      2 C2         -2.3461   -3.7016    7.7933 C.ar      1 <0>        -0.0459
      3 C3         -3.5124   -2.9584    7.7421 C.ar      1 <0>        -0.1434
      4 C4         -3.6066   -1.8748    6.8939 C.ar      1 <0>        -0.0634
      5 C5         -2.5217   -1.5283    6.0858 C.ar      1 <0>        -0.1542
      6 C6         -1.3498   -2.2861    6.1384 C.ar      1 <0>        -0.0874
      7 C7         -1.2670   -3.3635    6.9956 C.ar      1 <0>        -0.1447
      8 C8         -2.6154   -0.3680    5.1742 C.2       1 <0>         0.3426
      9 O1         -3.5991    0.3475    5.1993 O.2       1 <0>        -0.2635
     10 C9         -1.5231   -0.0796    4.2401 C.2       1 <0>        -0.2297
     11 C10        -0.7102    1.0027    4.2579 C.2       1 <0>         0.0429
     12 C11         0.2577    0.9010    3.1451 C.2       1 <0>         0.3159
     13 O2          1.1238    1.7163    2.8976 O.2       1 <0>        -0.3546
     14 N1          0.0361   -0.2266    2.4455 N.am      1 <0>        -0.3302
     15 C12        -1.0880   -0.9326    3.0714 C.3       1 <0>         0.1206
     16 H1         -0.7661   -1.9130    3.4224 H         1 <0>         0.1133
     17 C13        -2.2200   -1.0796    2.0875 C.ar      1 <0>        -0.1195
     18 C14        -2.6567    0.0180    1.3690 C.ar      1 <0>        -0.0796
     19 C15        -3.6905   -0.1154    0.4623 C.ar      1 <0>        -0.1539
     20 C16        -4.2982   -1.3493    0.2816 C.ar      1 <0>         0.0811
     21 C17        -3.8619   -2.4478    1.0080 C.ar      1 <0>        -0.1587
     22 C18        -2.8238   -2.3106    1.9090 C.ar      1 <0>        -0.1030
     23 O3         -5.3196   -1.4817   -0.6050 O.3       1 <0>        -0.2932
     24 C19         0.7881   -0.6738    1.2704 C.3       1 <0>        -0.0158
     25 C20         0.1293   -0.1240    0.0037 C.3       1 <0>         0.0122
     26 H2         -0.9209   -0.4155   -0.0155 H         1 <0>         0.1373
     27 C21         0.8386   -0.6913   -1.2275 C.3       1 <0>        -0.2476
     28 O4          0.2281    1.3015   -0.0042 O.3       1 <0>        -0.3391
     29 O5         -0.7706    2.0138    5.1544 O.3       1 <0>        -0.2113
     30 H3         -2.5853   -5.7822    8.2033 H         1 <0>         0.0896
     31 H4         -1.2162   -5.0132    9.0413 H         1 <0>         0.0847
     32 H5         -2.8809   -4.7127    9.5950 H         1 <0>         0.0861
     33 H6         -4.3505   -3.2273    8.3679 H         1 <0>         0.1364
     34 H7         -4.5175   -1.2959    6.8546 H         1 <0>         0.1529
     35 H8         -0.5087   -2.0262    5.5128 H         1 <0>         0.1334
     36 H9         -0.3596   -3.9475    7.0408 H         1 <0>         0.1332
     37 H10        -2.1867    0.9795    1.5137 H         1 <0>         0.1551
     38 H11        -4.0281    0.7412   -0.1022 H         1 <0>         0.1479
     39 H12        -4.3332   -3.4096    0.8689 H         1 <0>         0.1418
     40 H13        -2.4837   -3.1654    2.4747 H         1 <0>         0.1322
     41 H14        -6.1945   -1.3278   -0.2230 H         1 <0>         0.2315
     42 H15         0.7918   -1.7632    1.2345 H         1 <0>         0.0975
     43 H16         1.8132   -0.3089    1.3345 H         1 <0>         0.1096
     44 H17         1.8887   -0.3998   -1.2083 H         1 <0>         0.0743
     45 H18         0.7632   -1.7787   -1.2214 H         1 <0>         0.0805
     46 H19         0.3693   -0.2996   -2.1299 H         1 <0>         0.0973
     47 H20         1.1364    1.6329    0.0118 H         1 <0>         0.2164
     48 H21        -0.0608    2.6867    4.9462 H         1 <0>         0.2524
@<TRIPOS>BOND
     1    1    2 1
     2    1   30 1
     3    1   31 1
     4    1   32 1
     5    2    7 ar
     6    2    3 ar
     7    3    4 ar
     8    3   33 1
     9    4    5 ar
    10    4   34 1
    11    5    6 ar
    12    5    8 1
    13    6    7 ar
    14    6   35 1
    15    7   36 1
    16    8    9 2
    17    8   10 1
    18   10   15 1
    19   10   11 2
    20   11   12 1
    21   11   29 1
    22   12   13 2
    23   12   14 am
    24   14   15 1
    25   14   24 1
    26   15   16 1
    27   15   17 1
    28   17   22 ar
    29   17   18 ar
    30   18   19 ar
    31   18   37 1
    32   19   20 ar
    33   19   38 1
    34   20   21 ar
    35   20   23 1
    36   21   22 ar
    37   21   39 1
    38   22   40 1
    39   23   41 1
    40   24   25 1
    41   24   42 1
    42   24   43 1
    43   25   26 1
    44   25   27 1
    45   25   28 1
    46   27   44 1
    47   27   45 1
    48   27   46 1
    49   28   47 1
    50   29   48 1
@<TRIPOS>MOLECULE
ZINC00778934
   48    50     0     0     0
SMALL
USER_CHARGES

@<TRIPOS>ATOM
      1 C1         -2.2505   -4.8842    8.7225 C.3       1 <0>        -0.1818
      2 C2         -2.3461   -3.7016    7.7933 C.ar      1 <0>        -0.0391
      3 C3         -3.5124   -2.9584    7.7421 C.ar      1 <0>        -0.1377
      4 C4         -3.6066   -1.8748    6.8939 C.ar      1 <0>        -0.0529
      5 C5         -2.5217   -1.5283    6.0858 C.ar      1 <0>        -0.1656
      6 C6         -1.3498   -2.2861    6.1384 C.ar      1 <0>        -0.1042
      7 C7         -1.2670   -3.3635    6.9956 C.ar      1 <0>        -0.1347
      8 C8         -2.6154   -0.3680    5.1742 C.2       1 <0>         0.3072
      9 O1         -3.5991    0.3475    5.1993 O.2       1 <0>        -0.2341
     10 C9         -1.5231   -0.0796    4.2401 C.3       1 <0>        -0.2384
     11 C10        -0.7102    1.0027    4.2579 C.2       1 <0>         0.1873
     12 C11         0.2577    0.9010    3.1451 C.2       1 <0>         0.2912
     13 O2          1.1238    1.7163    2.8976 O.2       1 <0>        -0.2929
     14 N1          0.0361   -0.2266    2.4455 N.am      1 <0>        -0.3419
     15 C12        -1.0880   -0.9326    3.0714 C.3       1 <0>         0.1095
     16 H1         -0.7661   -1.9130    3.4224 H         1 <0>         0.1043
     17 C13        -2.2200   -1.0796    2.0875 C.ar      1 <0>        -0.1268
     18 C14        -2.6567    0.0180    1.3690 C.ar      1 <0>        -0.0765
     19 C15        -3.6905   -0.1154    0.4623 C.ar      1 <0>        -0.1524
     20 C16        -4.2982   -1.3493    0.2816 C.ar      1 <0>         0.0839
     21 C17        -3.8619   -2.4478    1.0080 C.ar      1 <0>        -0.1589
     22 C18        -2.8238   -2.3106    1.9090 C.ar      1 <0>        -0.1038
     23 O3         -5.3196   -1.4817   -0.6050 O.3       1 <0>        -0.2923
     24 C19         0.7881   -0.6738    1.2704 C.3       1 <0>        -0.0156
     25 C20         0.1293   -0.1240    0.0037 C.3       1 <0>         0.0126
     26 H2         -0.9209   -0.4155   -0.0155 H         1 <0>         0.1361
     27 C21         0.8386   -0.6913   -1.2275 C.3       1 <0>        -0.2477
     28 O4          0.2281    1.3015   -0.0042 O.3       1 <0>        -0.3376
     29 O5         -0.7706    2.0138    5.1544 O.2       1 <0>        -0.2746
     30 H3         -2.5853   -5.7822    8.2033 H         1 <0>         0.0929
     31 H4         -1.2162   -5.0132    9.0413 H         1 <0>         0.0877
     32 H5         -2.8809   -4.7127    9.5950 H         1 <0>         0.0893
     33 H6         -4.3505   -3.2273    8.3679 H         1 <0>         0.1419
     34 H7         -4.5175   -1.2959    6.8546 H         1 <0>         0.1578
     35 H8         -0.5087   -2.0262    5.5128 H         1 <0>         0.1276
     36 H9         -0.3596   -3.9475    7.0408 H         1 <0>         0.1382
     37 H10        -2.1867    0.9795    1.5137 H         1 <0>         0.1578
     38 H11        -4.0281    0.7412   -0.1022 H         1 <0>         0.1503
     39 H12        -4.3332   -3.4096    0.8689 H         1 <0>         0.1425
     40 H13        -2.4837   -3.1654    2.4747 H         1 <0>         0.1303
     41 H14        -6.1945   -1.3278   -0.2230 H         1 <0>         0.2325
     42 H15         0.7918   -1.7632    1.2345 H         1 <0>         0.0964
     43 H16         1.8132   -0.3089    1.3345 H         1 <0>         0.1115
     44 H17         1.8887   -0.3998   -1.2083 H         1 <0>         0.0752
     45 H18         0.7632   -1.7787   -1.2214 H         1 <0>         0.0798
     46 H19         0.3693   -0.2996   -2.1299 H         1 <0>         0.0982
     47 H20         1.1364    1.6329    0.0118 H         1 <0>         0.2178
     48 H21        -1.0176   -0.3527    5.0586 H         1 <0>         0.1498
@<TRIPOS>BOND
     1    1    2 1
     2    1   30 1
     3    1   31 1
     4    1   32 1
     5    2    7 ar
     6    2    3 ar
     7    3    4 ar
     8    3   33 1
     9    4    5 ar
    10    4   34 1
    11    5    6 ar
    12    5    8 1
    13    6    7 ar
    14    6   35 1
    15    7   36 1
    16    8   10 1
    17    8    9 2
    18   10   48 1
    19   10   15 1
    20   10   11 1
    21   11   12 1
    22   11   29 2
    23   12   13 2
    24   12   14 am
    25   14   15 1
    26   14   24 1
    27   15   16 1
    28   15   17 1
    29   17   22 ar
    30   17   18 ar
    31   18   19 ar
    32   18   37 1
    33   19   20 ar
    34   19   38 1
    35   20   21 ar
    36   20   23 1
    37   21   22 ar
    38   21   39 1
    39   22   40 1
    40   23   41 1
    41   24   25 1
    42   24   42 1
    43   24   43 1
    44   25   26 1
    45   25   27 1
    46   25   28 1
    47   27   44 1
    48   27   45 1
    49   27   46 1
    50   28   47 1
@<TRIPOS>MOLECULE
ZINC00778934
   48    50     0     0     0
SMALL
USER_CHARGES

@<TRIPOS>ATOM
      1 C1         -2.2505   -4.8842    8.7225 C.3       1 <0>        -0.1857
      2 C2         -2.3461   -3.7016    7.7933 C.ar      1 <0>        -0.0171
      3 C3         -3.5124   -2.9584    7.7421 C.ar      1 <0>        -0.1483
      4 C4         -3.6066   -1.8748    6.8939 C.ar      1 <0>        -0.0622
      5 C5         -2.5217   -1.5283    6.0858 C.ar      1 <0>        -0.1421
      6 C6         -1.3498   -2.2861    6.1384 C.ar      1 <0>        -0.0356
      7 C7         -1.2670   -3.3635    6.9956 C.ar      1 <0>        -0.1503
      8 C8         -2.6154   -0.3680    5.1742 C.2       1 <0>         0.4086
      9 O1         -3.5991    0.3475    5.1993 O.3       1 <0>        -0.1301
     10 C9         -1.5231   -0.0796    4.2401 C.2       1 <0>        -0.5784
     11 C10        -0.7098    1.0024    4.2583 C.2       1 <0>         0.2289
     12 C11         0.2580    0.9008    3.1453 C.2       1 <0>         0.3074
     13 O2          1.1244    1.7159    2.8981 O.2       1 <0>        -0.3211
     14 N1          0.0358   -0.2264    2.4452 N.am      1 <0>        -0.3454
     15 C12        -1.0880   -0.9326    3.0714 C.3       1 <0>         0.1697
     16 H1         -0.7661   -1.9130    3.4224 H         1 <0>         0.0835
     17 C13        -2.2200   -1.0796    2.0875 C.ar      1 <0>        -0.1203
     18 C14        -2.6567    0.0180    1.3690 C.ar      1 <0>        -0.0954
     19 C15        -3.6905   -0.1154    0.4623 C.ar      1 <0>        -0.1583
     20 C16        -4.2982   -1.3493    0.2816 C.ar      1 <0>         0.0716
     21 C17        -3.8619   -2.4478    1.0080 C.ar      1 <0>        -0.1592
     22 C18        -2.8238   -2.3106    1.9090 C.ar      1 <0>        -0.1161
     23 O3         -5.3196   -1.4817   -0.6050 O.3       1 <0>        -0.2903
     24 C19         0.7875   -0.6733    1.2698 C.3       1 <0>        -0.0156
     25 C20         0.1287   -0.1226    0.0035 C.3       1 <0>         0.0123
     26 H2         -0.9216   -0.4137   -0.0157 H         1 <0>         0.1314
     27 C21         0.8377   -0.6897   -1.2281 C.3       1 <0>        -0.2480
     28 O4          0.2281    1.3028   -0.0038 O.3       1 <0>        -0.3397
     29 O5         -0.7696    2.0131    5.1553 O.2       1 <0>        -0.4130
     30 H3         -2.5853   -5.7822    8.2033 H         1 <0>         0.0964
     31 H4         -1.2162   -5.0132    9.0413 H         1 <0>         0.0923
     32 H5         -2.8809   -4.7127    9.5950 H         1 <0>         0.0910
     33 H6         -4.3505   -3.2273    8.3679 H         1 <0>         0.1436
     34 H7         -4.5175   -1.2959    6.8546 H         1 <0>         0.1462
     35 H8         -0.5087   -2.0262    5.5128 H         1 <0>         0.1622
     36 H9         -0.3596   -3.9475    7.0408 H         1 <0>         0.1460
     37 H10        -2.1867    0.9795    1.5137 H         1 <0>         0.1600
     38 H11        -4.0281    0.7412   -0.1022 H         1 <0>         0.1470
     39 H12        -4.3332   -3.4096    0.8689 H         1 <0>         0.1403
     40 H13        -2.4837   -3.1654    2.4747 H         1 <0>         0.1308
     41 H14        -6.1945   -1.3278   -0.2230 H         1 <0>         0.2270
     42 H15         0.7907   -1.7627    1.2334 H         1 <0>         0.0895
     43 H16         1.8127   -0.3089    1.3340 H         1 <0>         0.1087
     44 H17         1.8879   -0.3986   -1.2089 H         1 <0>         0.0745
     45 H18         0.7618   -1.7770   -1.2225 H         1 <0>         0.0779
     46 H19         0.3684   -0.2973   -2.1302 H         1 <0>         0.0934
     47 H20         1.1366    1.6338    0.0123 H         1 <0>         0.2180
     48 H21        -3.4974    1.0777    4.5237 H         1 <0>         0.3140
@<TRIPOS>BOND
     1    1    2 1
     2    1   30 1
     3    1   31 1
     4    1   32 1
     5    2    7 ar
     6    2    3 ar
     7    3    4 ar
     8    3   33 1
     9    4    5 ar
    10    4   34 1
    11    5    6 ar
    12    5    8 1
    13    6    7 ar
    14    6   35 1
    15    7   36 1
    16    8   10 2
    17    8    9 1
    18    9   48 1
    19   10   15 1
    20   10   11 1
    21   11   12 1
    22   11   29 2
    23   12   13 2
    24   12   14 am
    25   14   15 1
    26   14   24 1
    27   15   16 1
    28   15   17 1
    29   17   22 ar
    30   17   18 ar
    31   18   19 ar
    32   18   37 1
    33   19   20 ar
    34   19   38 1
    35   20   21 ar
    36   20   23 1
    37   21   22 ar
    38   21   39 1
    39   22   40 1
    40   23   41 1
    41   24   25 1
    42   24   42 1
    43   24   43 1
    44   25   26 1
    45   25   27 1
    46   25   28 1
    47   27   44 1
    48   27   45 1
    49   27   46 1
    50   28   47 1
@<TRIPOS>MOLECULE
ZINC00778980
   48    50     0     0     0
SMALL
USER_CHARGES

@<TRIPOS>ATOM
      1 C1          2.3768    8.6361   -6.4974 C.3       1 <0>        -0.1799
      2 C2          1.8630    8.1856   -5.1543 C.ar      1 <0>        -0.0457
      3 C3          2.2466    8.8602   -4.0084 C.ar      1 <0>        -0.1431
      4 C4          1.7798    8.4536   -2.7760 C.ar      1 <0>        -0.0627
      5 C5          0.9180    7.3583   -2.6860 C.ar      1 <0>        -0.1529
      6 C6          0.5392    6.6788   -3.8458 C.ar      1 <0>        -0.0880
      7 C7          1.0093    7.0994   -5.0723 C.ar      1 <0>        -0.1447
      8 C8          0.4139    6.9163   -1.3681 C.2       1 <0>         0.3434
      9 O1          0.6724    7.5622   -0.3701 O.2       1 <0>        -0.2666
     10 C9         -0.3973    5.6998   -1.2641 C.2       1 <0>        -0.2296
     11 C10        -1.6732    5.6158   -0.8198 C.2       1 <0>         0.0427
     12 C11        -2.1172    4.2071   -0.8823 C.2       1 <0>         0.3088
     13 O2         -3.2171    3.8076   -0.5556 O.2       1 <0>        -0.3564
     14 N1         -1.1225    3.4327   -1.3523 N.am      1 <0>        -0.3272
     15 C12         0.0293    4.2980   -1.6323 C.3       1 <0>         0.1178
     16 H1          0.2856    4.2500   -2.6906 H         1 <0>         0.1135
     17 C13         1.2092    3.8772   -0.7944 C.ar      1 <0>        -0.0876
     18 C14         2.3820    3.4737   -1.4060 C.ar      1 <0>        -0.1386
     19 C15         3.4661    3.0871   -0.6402 C.ar      1 <0>        -0.1285
     20 C16         3.3802    3.1032    0.7387 C.ar      1 <0>        -0.1438
     21 C17         2.2051    3.5080    1.3545 C.ar      1 <0>         0.0821
     22 C18         1.1202    3.9005    0.5837 C.ar      1 <0>        -0.0774
     23 O3          2.1180    3.5241    2.7107 O.3       1 <0>        -0.2880
     24 C19        -1.1810    1.9829   -1.5547 C.3       1 <0>        -0.0154
     25 C20        -0.8739    1.2710   -0.2357 C.3       1 <0>         0.0163
     26 H2         -1.5322    1.6524    0.5449 H         1 <0>         0.1381
     27 C21        -1.0996   -0.2330   -0.4033 C.3       1 <0>        -0.2470
     28 O4          0.4867    1.5107    0.1295 O.3       1 <0>        -0.3318
     29 O5         -2.4242    6.6562   -0.3913 O.3       1 <0>        -0.2101
     30 H3          3.3088    8.1175   -6.7225 H         1 <0>         0.0898
     31 H4          1.6381    8.4054   -7.2650 H         1 <0>         0.0845
     32 H5          2.5552    9.7112   -6.4763 H         1 <0>         0.0860
     33 H6          2.9128    9.7073   -4.0795 H         1 <0>         0.1364
     34 H7          2.0796    8.9812   -1.8826 H         1 <0>         0.1529
     35 H8         -0.1237    5.8285   -3.7828 H         1 <0>         0.1329
     36 H9          0.7142    6.5771   -5.9704 H         1 <0>         0.1329
     37 H10         2.4510    3.4601   -2.4837 H         1 <0>         0.1257
     38 H11         4.3808    2.7720   -1.1202 H         1 <0>         0.1315
     39 H12         4.2274    2.8011    1.3365 H         1 <0>         0.1391
     40 H13         0.2055    4.2200    1.0609 H         1 <0>         0.1471
     41 H14         2.3846    4.3626    3.1119 H         1 <0>         0.2273
     42 H15        -0.4461    1.6909   -2.3048 H         1 <0>         0.0920
     43 H16        -2.1781    1.7035   -1.8948 H         1 <0>         0.1135
     44 H17        -0.8809   -0.7401    0.5364 H         1 <0>         0.0977
     45 H18        -2.1374   -0.4158   -0.6818 H         1 <0>         0.0841
     46 H19        -0.4413   -0.6144   -1.1838 H         1 <0>         0.0706
     47 H20         1.1297    1.1964   -0.5207 H         1 <0>         0.2063
     48 H21        -3.3275    6.3252   -0.1184 H         1 <0>         0.2520
@<TRIPOS>BOND
     1    1    2 1
     2    1   30 1
     3    1   31 1
     4    1   32 1
     5    2    7 ar
     6    2    3 ar
     7    3    4 ar
     8    3   33 1
     9    4    5 ar
    10    4   34 1
    11    5    6 ar
    12    5    8 1
    13    6    7 ar
    14    6   35 1
    15    7   36 1
    16    8    9 2
    17    8   10 1
    18   10   15 1
    19   10   11 2
    20   11   12 1
    21   11   29 1
    22   12   13 2
    23   12   14 am
    24   14   15 1
    25   14   24 1
    26   15   16 1
    27   15   17 1
    28   17   22 ar
    29   17   18 ar
    30   18   19 ar
    31   18   37 1
    32   19   20 ar
    33   19   38 1
    34   20   21 ar
    35   20   39 1
    36   21   22 ar
    37   21   23 1
    38   22   40 1
    39   23   41 1
    40   24   25 1
    41   24   42 1
    42   24   43 1
    43   25   26 1
    44   25   27 1
    45   25   28 1
    46   27   44 1
    47   27   45 1
    48   27   46 1
    49   28   47 1
    50   29   48 1
@<TRIPOS>MOLECULE
ZINC00778980
   48    50     0     0     0
SMALL
USER_CHARGES

@<TRIPOS>ATOM
      1 C1          2.3768    8.6361   -6.4974 C.3       1 <0>        -0.1815
      2 C2          1.8630    8.1856   -5.1543 C.ar      1 <0>        -0.0379
      3 C3          2.2466    8.8602   -4.0084 C.ar      1 <0>        -0.1439
      4 C4          1.7798    8.4536   -2.7760 C.ar      1 <0>        -0.0573
      5 C5          0.9180    7.3583   -2.6860 C.ar      1 <0>        -0.1651
      6 C6          0.5392    6.6788   -3.8458 C.ar      1 <0>        -0.0799
      7 C7          1.0093    7.0994   -5.0723 C.ar      1 <0>        -0.1447
      8 C8          0.4139    6.9163   -1.3681 C.2       1 <0>         0.3370
      9 O1          0.6724    7.5622   -0.3701 O.2       1 <0>        -0.2699
     10 C9         -0.3973    5.6998   -1.2641 C.3       1 <0>        -0.2768
     11 C10        -1.6732    5.6158   -0.8198 C.2       1 <0>         0.1947
     12 C11        -2.1172    4.2071   -0.8823 C.2       1 <0>         0.2851
     13 O2         -3.2171    3.8076   -0.5556 O.2       1 <0>        -0.2940
     14 N1         -1.1225    3.4327   -1.3523 N.am      1 <0>        -0.3377
     15 C12         0.0293    4.2980   -1.6323 C.3       1 <0>         0.1049
     16 H1          0.2856    4.2500   -2.6906 H         1 <0>         0.1148
     17 C13         1.2092    3.8772   -0.7944 C.ar      1 <0>        -0.1083
     18 C14         2.3820    3.4737   -1.4060 C.ar      1 <0>        -0.1321
     19 C15         3.4661    3.0871   -0.6402 C.ar      1 <0>        -0.1243
     20 C16         3.3802    3.1032    0.7387 C.ar      1 <0>        -0.1401
     21 C17         2.2051    3.5080    1.3545 C.ar      1 <0>         0.0897
     22 C18         1.1202    3.9005    0.5837 C.ar      1 <0>        -0.0953
     23 O3          2.1180    3.5241    2.7107 O.3       1 <0>        -0.2851
     24 C19        -1.1810    1.9829   -1.5547 C.3       1 <0>        -0.0148
     25 C20        -0.8739    1.2710   -0.2357 C.3       1 <0>         0.0154
     26 H2         -1.5322    1.6524    0.5449 H         1 <0>         0.1393
     27 C21        -1.0996   -0.2330   -0.4033 C.3       1 <0>        -0.2465
     28 O4          0.4867    1.5107    0.1295 O.3       1 <0>        -0.3344
     29 O5         -2.4242    6.6562   -0.3913 O.2       1 <0>        -0.2745
     30 H3          3.3088    8.1175   -6.7225 H         1 <0>         0.0911
     31 H4          1.6381    8.4054   -7.2650 H         1 <0>         0.0867
     32 H5          2.5552    9.7112   -6.4763 H         1 <0>         0.0880
     33 H6          2.9128    9.7073   -4.0795 H         1 <0>         0.1389
     34 H7          2.0796    8.9812   -1.8826 H         1 <0>         0.1532
     35 H8         -0.1237    5.8285   -3.7828 H         1 <0>         0.1349
     36 H9          0.7142    6.5771   -5.9704 H         1 <0>         0.1359
     37 H10         2.4510    3.4601   -2.4837 H         1 <0>         0.1291
     38 H11         4.3808    2.7720   -1.1202 H         1 <0>         0.1350
     39 H12         4.2274    2.8011    1.3365 H         1 <0>         0.1428
     40 H13         0.2055    4.2200    1.0609 H         1 <0>         0.1423
     41 H14         2.3846    4.3626    3.1119 H         1 <0>         0.2294
     42 H15        -0.4461    1.6909   -2.3048 H         1 <0>         0.0916
     43 H16        -2.1781    1.7035   -1.8948 H         1 <0>         0.1168
     44 H17        -0.8809   -0.7401    0.5364 H         1 <0>         0.0985
     45 H18        -2.1374   -0.4158   -0.6818 H         1 <0>         0.0860
     46 H19        -0.4413   -0.6144   -1.1838 H         1 <0>         0.0706
     47 H20         1.1297    1.1964   -0.5207 H         1 <0>         0.2058
     48 H21        -0.1766    5.8741   -0.3045 H         1 <0>         0.1865
@<TRIPOS>BOND
     1    1    2 1
     2    1   30 1
     3    1   31 1
     4    1   32 1
     5    2    7 ar
     6    2    3 ar
     7    3    4 ar
     8    3   33 1
     9    4    5 ar
    10    4   34 1
    11    5    6 ar
    12    5    8 1
    13    6    7 ar
    14    6   35 1
    15    7   36 1
    16    8   10 1
    17    8    9 2
    18   10   48 1
    19   10   15 1
    20   10   11 1
    21   11   12 1
    22   11   29 2
    23   12   13 2
    24   12   14 am
    25   14   15 1
    26   14   24 1
    27   15   16 1
    28   15   17 1
    29   17   22 ar
    30   17   18 ar
    31   18   19 ar
    32   18   37 1
    33   19   20 ar
    34   19   38 1
    35   20   21 ar
    36   20   39 1
    37   21   22 ar
    38   21   23 1
    39   22   40 1
    40   23   41 1
    41   24   25 1
    42   24   42 1
    43   24   43 1
    44   25   26 1
    45   25   27 1
    46   25   28 1
    47   27   44 1
    48   27   45 1
    49   27   46 1
    50   28   47 1
@<TRIPOS>MOLECULE
ZINC00778980
   48    50     0     0     0
SMALL
USER_CHARGES

@<TRIPOS>ATOM
      1 C1          2.3768    8.6361   -6.4974 C.3       1 <0>        -0.1852
      2 C2          1.8630    8.1856   -5.1543 C.ar      1 <0>        -0.0192
      3 C3          2.2466    8.8602   -4.0084 C.ar      1 <0>        -0.1469
      4 C4          1.7798    8.4536   -2.7760 C.ar      1 <0>        -0.0628
      5 C5          0.9180    7.3583   -2.6860 C.ar      1 <0>        -0.1370
      6 C6          0.5392    6.6788   -3.8458 C.ar      1 <0>        -0.0404
      7 C7          1.0093    7.0994   -5.0723 C.ar      1 <0>        -0.1493
      8 C8          0.4139    6.9163   -1.3681 C.2       1 <0>         0.3939
      9 O1          0.6724    7.5622   -0.3701 O.3       1 <0>        -0.1325
     10 C9         -0.3973    5.6998   -1.2641 C.2       1 <0>        -0.5590
     11 C10        -1.6731    5.6158   -0.8196 C.2       1 <0>         0.2250
     12 C11        -2.1172    4.2071   -0.8822 C.2       1 <0>         0.3009
     13 O2         -3.2170    3.8076   -0.5554 O.2       1 <0>        -0.3218
     14 N1         -1.1225    3.4327   -1.3524 N.am      1 <0>        -0.3424
     15 C12         0.0293    4.2980   -1.6323 C.3       1 <0>         0.1647
     16 H1          0.2856    4.2500   -2.6906 H         1 <0>         0.0839
     17 C13         1.2092    3.8772   -0.7944 C.ar      1 <0>        -0.0859
     18 C14         2.3820    3.4737   -1.4060 C.ar      1 <0>        -0.1471
     19 C15         3.4661    3.0871   -0.6402 C.ar      1 <0>        -0.1277
     20 C16         3.3802    3.1032    0.7387 C.ar      1 <0>        -0.1507
     21 C17         2.2051    3.5080    1.3545 C.ar      1 <0>         0.0762
     22 C18         1.1202    3.9005    0.5837 C.ar      1 <0>        -0.0953
     23 O3          2.1180    3.5241    2.7107 O.3       1 <0>        -0.2839
     24 C19        -1.1811    1.9829   -1.5549 C.3       1 <0>        -0.0147
     25 C20        -0.8738    1.2709   -0.2361 C.3       1 <0>         0.0151
     26 H2         -1.5320    1.6522    0.5447 H         1 <0>         0.1400
     27 C21        -1.0995   -0.2331   -0.4038 C.3       1 <0>        -0.2470
     28 O4          0.4869    1.5106    0.1290 O.3       1 <0>        -0.3353
     29 O5         -2.4241    6.6561   -0.3909 O.2       1 <0>        -0.4093
     30 H3          3.3088    8.1175   -6.7225 H         1 <0>         0.0963
     31 H4          1.6381    8.4054   -7.2650 H         1 <0>         0.0917
     32 H5          2.5552    9.7112   -6.4763 H         1 <0>         0.0908
     33 H6          2.9128    9.7073   -4.0795 H         1 <0>         0.1433
     34 H7          2.0796    8.9812   -1.8826 H         1 <0>         0.1464
     35 H8         -0.1237    5.8285   -3.7828 H         1 <0>         0.1603
     36 H9          0.7142    6.5771   -5.9704 H         1 <0>         0.1451
     37 H10         2.4510    3.4601   -2.4837 H         1 <0>         0.1255
     38 H11         4.3808    2.7720   -1.1202 H         1 <0>         0.1303
     39 H12         4.2274    2.8011    1.3365 H         1 <0>         0.1385
     40 H13         0.2055    4.2200    1.0609 H         1 <0>         0.1470
     41 H14         2.3846    4.3626    3.1119 H         1 <0>         0.2200
     42 H15        -0.4463    1.6910   -2.3052 H         1 <0>         0.0841
     43 H16        -2.1782    1.7036   -1.8949 H         1 <0>         0.1125
     44 H17        -0.8807   -0.7403    0.5358 H         1 <0>         0.0943
     45 H18        -2.1374   -0.4158   -0.6821 H         1 <0>         0.0848
     46 H19        -0.4414   -0.6144   -1.1844 H         1 <0>         0.0681
     47 H20         1.1298    1.1963   -0.5214 H         1 <0>         0.2032
     48 H21         0.2564    7.1247    0.4271 H         1 <0>         0.3116
@<TRIPOS>BOND
     1    1    2 1
     2    1   30 1
     3    1   31 1
     4    1   32 1
     5    2    7 ar
     6    2    3 ar
     7    3    4 ar
     8    3   33 1
     9    4    5 ar
    10    4   34 1
    11    5    6 ar
    12    5    8 1
    13    6    7 ar
    14    6   35 1
    15    7   36 1
    16    8   10 2
    17    8    9 1
    18    9   48 1
    19   10   15 1
    20   10   11 1
    21   11   12 1
    22   11   29 2
    23   12   13 2
    24   12   14 am
    25   14   15 1
    26   14   24 1
    27   15   16 1
    28   15   17 1
    29   17   22 ar
    30   17   18 ar
    31   18   19 ar
    32   18   37 1
    33   19   20 ar
    34   19   38 1
    35   20   21 ar
    36   20   39 1
    37   21   22 ar
    38   21   23 1
    39   22   40 1
    40   23   41 1
    41   24   25 1
    42   24   42 1
    43   24   43 1
    44   25   26 1
    45   25   27 1
    46   25   28 1
    47   27   44 1
    48   27   45 1
    49   27   46 1
    50   28   47 1
@<TRIPOS>MOLECULE
ZINC00784476
   41    43     0     0     0
SMALL
USER_CHARGES

@<TRIPOS>ATOM
      1 C1         -5.8786    7.2047    1.9582 C.3       1 <0>        -0.2061
      2 C2         -5.3723    7.0746    0.5203 C.3       1 <0>        -0.1267
      3 C3         -4.1895    6.1414    0.4866 C.ar      1 <0>        -0.0656
      4 C4         -4.3867    4.7856    0.2955 C.ar      1 <0>        -0.1335
      5 C5         -3.3073    3.9262    0.2647 C.ar      1 <0>        -0.0895
      6 C6         -2.0165    4.4268    0.4262 C.ar      1 <0>        -0.0248
      7 C7         -1.8242    5.7932    0.6238 C.ar      1 <0>        -0.1125
      8 C8         -2.9107    6.6438    0.6475 C.ar      1 <0>        -0.1296
      9 C9         -0.8525    3.5084    0.3940 C.2       1 <0>         0.0196
     10 C10         0.4147    3.9940    0.5519 C.2       1 <0>        -0.3656
     11 S1          1.3677    2.4865    0.4275 S.3       1 <0>         0.2756
     12 C11        -0.0062    1.3707    0.1798 C.2       1 <0>        -0.0134
     13 N1         -1.0309    2.2031    0.2053 N.2       1 <0>        -0.2469
     14 N2          0.0021   -0.0041    0.0020 N.pl3     1 <0>        -0.2503
     15 C12         1.2161   -0.6858   -0.1182 C.ar      1 <0>         0.1323
     16 C13         2.2997   -0.0743   -0.7361 C.ar      1 <0>        -0.1982
     17 C14         3.4994   -0.7490   -0.8490 C.ar      1 <0>         0.0106
     18 C15         3.6196   -2.0359   -0.3571 C.ar      1 <0>        -0.7894
     19 C16         2.5414   -2.6496    0.2539 C.ar      1 <0>         0.0004
     20 C17         1.3404   -1.9786    0.3748 C.ar      1 <0>        -0.1892
     21 S2          5.1503   -2.8954   -0.5087 S.o2      1 <0>         2.7637
     22 O1          6.1619   -1.9050   -0.6301 O.2       1 <0>        -0.9173
     23 O2          5.1667   -3.8795    0.5163 O.2       1 <0>        -0.9135
     24 N3          5.1125   -3.7124   -1.9487 N.pl3     1 <0>        -0.9287
     25 H1         -6.1787    6.2242    2.3278 H         1 <0>         0.0778
     26 H2         -5.0836    7.6029    2.5887 H         1 <0>         0.0772
     27 H3         -6.7341    7.8796    1.9825 H         1 <0>         0.0730
     28 H4         -5.0722    8.0551    0.1506 H         1 <0>         0.0869
     29 H5         -6.1673    6.6764   -0.1102 H         1 <0>         0.0875
     30 H6         -5.3873    4.3989    0.1704 H         1 <0>         0.1316
     31 H7         -3.4625    2.8678    0.1161 H         1 <0>         0.1504
     32 H8         -0.8266    6.1860    0.7540 H         1 <0>         0.1283
     33 H9         -2.7626    7.7032    0.7964 H         1 <0>         0.1313
     34 H10         0.7487    5.0091    0.7083 H         1 <0>         0.1995
     35 H11        -0.8348   -0.4929   -0.0390 H         1 <0>         0.2626
     36 H12         2.2053    0.9292   -1.1241 H         1 <0>         0.1582
     37 H13         4.3434   -0.2727   -1.3256 H         1 <0>         0.1589
     38 H14         2.6388   -3.6545    0.6373 H         1 <0>         0.1567
     39 H15         0.4989   -2.4583    0.8524 H         1 <0>         0.1438
     40 H16         5.9360   -3.8791   -2.4334 H         1 <0>         0.2447
     41 H17         4.2669   -4.0242   -2.3073 H         1 <0>         0.2303
@<TRIPOS>BOND
     1    1    2 1
     2    1   25 1
     3    1   26 1
     4    1   27 1
     5    2    3 1
     6    2   28 1
     7    2   29 1
     8    3    8 ar
     9    3    4 ar
    10    4    5 ar
    11    4   30 1
    12    5    6 ar
    13    5   31 1
    14    6    7 ar
    15    6    9 1
    16    7    8 ar
    17    7   32 1
    18    8   33 1
    19    9   13 1
    20    9   10 2
    21   10   11 1
    22   10   34 1
    23   11   12 1
    24   12   13 2
    25   12   14 1
    26   14   15 1
    27   14   35 1
    28   15   20 ar
    29   15   16 ar
    30   16   17 ar
    31   16   36 1
    32   17   18 ar
    33   17   37 1
    34   18   19 ar
    35   18   21 1
    36   19   20 ar
    37   19   38 1
    38   20   39 1
    39   21   22 2
    40   21   23 2
    41   21   24 1
    42   24   40 1
    43   24   41 1
@<TRIPOS>MOLECULE
ZINC00784478
   41    43     0     0     0
SMALL
USER_CHARGES

@<TRIPOS>ATOM
      1 C1         -2.3128    8.3774   11.3311 C.3       1 <0>        -0.1724
      2 C2         -3.1954    7.6492   10.3503 C.ar      1 <0>        -0.0849
      3 C3         -4.5362    7.4616   10.6352 C.ar      1 <0>        -0.1175
      4 C4         -5.3523    6.7947    9.7395 C.ar      1 <0>        -0.1305
      5 C5         -4.8336    6.3165    8.5532 C.ar      1 <0>        -0.0445
      6 C6         -3.4825    6.4979    8.2633 C.ar      1 <0>        -0.0176
      7 C7         -2.6648    7.1713    9.1696 C.ar      1 <0>        -0.1076
      8 C8         -2.9181    5.9818    6.9926 C.2       1 <0>         0.0158
      9 C9         -2.1628    6.7923    6.1932 C.2       1 <0>        -0.3600
     10 S1         -1.7668    5.6699    4.8591 S.3       1 <0>         0.2698
     11 C10        -2.6478    4.2490    5.4907 C.2       1 <0>        -0.0171
     12 N1         -3.1424    4.7244    6.6189 N.2       1 <0>        -0.2401
     13 N2         -2.7736    2.9814    4.9438 N.pl3     1 <0>        -0.2506
     14 C11        -2.2760    2.7198    3.6643 C.ar      1 <0>         0.1308
     15 C12        -1.7566    1.4673    3.3619 C.ar      1 <0>        -0.1885
     16 C13        -1.2652    1.2124    2.0967 C.ar      1 <0>         0.0058
     17 C14        -1.2894    2.2023    1.1314 C.ar      1 <0>        -0.7907
     18 C15        -1.8006    3.4520    1.4307 C.ar      1 <0>         0.0032
     19 C16        -2.2992    3.7118    2.6920 C.ar      1 <0>        -0.1972
     20 S2         -0.6610    1.8729   -0.4814 S.o2      1 <0>         2.7629
     21 O1          0.2641    0.8028   -0.3460 O.2       1 <0>        -0.9165
     22 O2         -0.2975    3.1280   -1.0398 O.2       1 <0>        -0.9113
     23 N3         -1.9205    1.2976   -1.3896 N.pl3     1 <0>        -0.9241
     24 C17        -5.7254    5.5955    7.5755 C.3       1 <0>        -0.1674
     25 H1         -2.3230    9.4440   11.1066 H         1 <0>         0.0844
     26 H2         -2.6836    8.2155   12.3432 H         1 <0>         0.0816
     27 H3         -1.2935    7.9993   11.2528 H         1 <0>         0.0815
     28 H4         -4.9473    7.8378   11.5604 H         1 <0>         0.1294
     29 H5         -6.3983    6.6515    9.9670 H         1 <0>         0.1316
     30 H6         -1.6180    7.3183    8.9482 H         1 <0>         0.1335
     31 H7         -1.8793    7.8252    6.3313 H         1 <0>         0.2012
     32 H8         -3.2070    2.2759    5.4492 H         1 <0>         0.2628
     33 H9         -1.7374    0.6938    4.1154 H         1 <0>         0.1436
     34 H10        -0.8613    0.2389    1.8610 H         1 <0>         0.1558
     35 H11        -1.8140    4.2242    0.6757 H         1 <0>         0.1558
     36 H12        -2.7023    4.6866    2.9238 H         1 <0>         0.1571
     37 H13        -1.8697    0.4129   -1.7841 H         1 <0>         0.2434
     38 H14        -2.7092    1.8454   -1.5271 H         1 <0>         0.2340
     39 H15        -5.6706    4.5221    7.7572 H         1 <0>         0.0966
     40 H16        -6.7536    5.9337    7.7039 H         1 <0>         0.0719
     41 H17        -5.3969    5.8091    6.5584 H         1 <0>         0.0862
@<TRIPOS>BOND
     1    1    2 1
     2    1   25 1
     3    1   26 1
     4    1   27 1
     5    2    7 ar
     6    2    3 ar
     7    3    4 ar
     8    3   28 1
     9    4    5 ar
    10    4   29 1
    11    5    6 ar
    12    5   24 1
    13    6    7 ar
    14    6    8 1
    15    7   30 1
    16    8   12 1
    17    8    9 2
    18    9   10 1
    19    9   31 1
    20   10   11 1
    21   11   12 2
    22   11   13 1
    23   13   14 1
    24   13   32 1
    25   14   19 ar
    26   14   15 ar
    27   15   16 ar
    28   15   33 1
    29   16   17 ar
    30   16   34 1
    31   17   18 ar
    32   17   20 1
    33   18   19 ar
    34   18   35 1
    35   19   36 1
    36   20   21 2
    37   20   22 2
    38   20   23 1
    39   23   37 1
    40   23   38 1
    41   24   39 1
    42   24   40 1
    43   24   41 1
@<TRIPOS>MOLECULE
ZINC00784480
   42    44     0     0     0
SMALL
USER_CHARGES

@<TRIPOS>ATOM
      1 C1         -5.8162    5.3489   11.0339 C.3       1 <0>        -0.1643
      2 C2         -4.8791    6.1919   10.2078 C.ar      1 <0>        -0.1098
      3 C3         -4.3536    5.6903    9.0350 C.ar      1 <0>        -0.0584
      4 C4         -3.4825    6.4684    8.2746 C.ar      1 <0>        -0.0561
      5 C5         -3.1540    7.7561    8.6963 C.ar      1 <0>        -0.0813
      6 C6         -3.6872    8.2538    9.8667 C.ar      1 <0>        -0.2208
      7 C7         -4.5501    7.4741   10.6249 C.ar      1 <0>         0.1015
      8 O1         -5.0735    7.9673   11.7781 O.3       1 <0>        -0.2103
      9 C8         -4.6925    9.2939   12.1483 C.3       1 <0>        -0.0636
     10 C9         -2.9108    5.9299    7.0162 C.2       1 <0>         0.0279
     11 C10        -1.9830    6.6492    6.3175 C.2       1 <0>        -0.3726
     12 S1         -1.6701    5.5445    4.9468 S.3       1 <0>         0.2746
     13 C11        -2.7980    4.2492    5.4418 C.2       1 <0>        -0.0125
     14 N1         -3.2994    4.7491    6.5568 N.2       1 <0>        -0.2493
     15 N2         -3.0768    3.0430    4.8180 N.pl3     1 <0>        -0.2502
     16 C12        -2.3366    2.6466    3.7008 C.ar      1 <0>         0.1310
     17 C13        -0.9952    2.9925    3.5960 C.ar      1 <0>        -0.1973
     18 C14        -0.2668    2.5995    2.4905 C.ar      1 <0>         0.0095
     19 C15        -0.8711    1.8621    1.4887 C.ar      1 <0>        -0.7907
     20 C16        -2.2076    1.5209    1.5873 C.ar      1 <0>        -0.0004
     21 C17        -2.9406    1.9061    2.6925 C.ar      1 <0>        -0.1886
     22 S2          0.0621    1.3622    0.0802 S.o2      1 <0>         2.7629
     23 O2          1.1445    2.2758   -0.0348 O.2       1 <0>        -0.9157
     24 O3         -0.8706    1.1500   -0.9705 O.2       1 <0>        -0.9122
     25 N3          0.7245   -0.1145    0.4306 N.pl3     1 <0>        -0.9240
     26 H1         -6.8422    5.5214   10.7088 H         1 <0>         0.0850
     27 H2         -5.5665    4.2957   10.9052 H         1 <0>         0.0776
     28 H3         -5.7177    5.6199   12.0850 H         1 <0>         0.0923
     29 H4         -4.6138    4.6942    8.7086 H         1 <0>         0.1560
     30 H5         -2.4831    8.3632    8.1068 H         1 <0>         0.1294
     31 H6         -3.4334    9.2513   10.1937 H         1 <0>         0.1357
     32 H7         -4.9966    9.9906   11.3672 H         1 <0>         0.0686
     33 H8         -5.1794    9.5636   13.0855 H         1 <0>         0.1077
     34 H9         -3.6108    9.3393   12.2747 H         1 <0>         0.0681
     35 H10        -1.5567    7.6178    6.5332 H         1 <0>         0.1982
     36 H11        -3.7857    2.4742    5.1569 H         1 <0>         0.2623
     37 H12        -0.5225    3.5678    4.3783 H         1 <0>         0.1578
     38 H13         0.7760    2.8681    2.4083 H         1 <0>         0.1568
     39 H14        -2.6776    0.9487    0.8011 H         1 <0>         0.1547
     40 H15        -3.9832    1.6356    2.7709 H         1 <0>         0.1432
     41 H16         1.6879   -0.2270    0.4276 H         1 <0>         0.2436
     42 H17         0.1490   -0.8671    0.6389 H         1 <0>         0.2337
@<TRIPOS>BOND
     1    1    2 1
     2    1   26 1
     3    1   27 1
     4    1   28 1
     5    2    7 ar
     6    2    3 ar
     7    3    4 ar
     8    3   29 1
     9    4    5 ar
    10    4   10 1
    11    5    6 ar
    12    5   30 1
    13    6    7 ar
    14    6   31 1
    15    7    8 1
    16    8    9 1
    17    9   32 1
    18    9   33 1
    19    9   34 1
    20   10   14 1
    21   10   11 2
    22   11   12 1
    23   11   35 1
    24   12   13 1
    25   13   14 2
    26   13   15 1
    27   15   16 1
    28   15   36 1
    29   16   21 ar
    30   16   17 ar
    31   17   18 ar
    32   17   37 1
    33   18   19 ar
    34   18   38 1
    35   19   20 ar
    36   19   22 1
    37   20   21 ar
    38   20   39 1
    39   21   40 1
    40   22   23 2
    41   22   24 2
    42   22   25 1
    43   25   41 1
    44   25   42 1
@<TRIPOS>MOLECULE
ZINC00784486
   37    39     0     0     0
SMALL
USER_CHARGES

@<TRIPOS>ATOM
      1 C1          3.0812    3.7034   -1.4323 C.3       1 <0>        -0.2528
      2 C2          3.0991    2.1972   -1.4771 C.2       1 <0>         0.2656
      3 O1          3.9173    1.6207   -2.1614 O.2       1 <0>        -0.2860
      4 C3          2.1234    1.4259   -0.6900 C.ar      1 <0>        -0.1292
      5 C4          1.1788    2.0882    0.1013 C.ar      1 <0>        -0.1134
      6 C5          0.2663    1.3622    0.8378 C.ar      1 <0>        -0.1087
      7 C6          0.2806   -0.0200    0.7979 C.ar      1 <0>        -0.1438
      8 C7          1.2150   -0.6890    0.0155 C.ar      1 <0>         0.0600
      9 C8          2.1374    0.0293   -0.7293 C.ar      1 <0>        -0.1028
     10 N1          1.2241   -2.0865   -0.0204 N.pl3     1 <0>        -0.2482
     11 C9          0.0352   -2.7905    0.0914 C.2       1 <0>         0.0019
     12 N2         -0.1588   -4.0933    0.1883 N.2       1 <0>        -0.2556
     13 C10        -1.3787   -4.6006    0.2936 C.2       1 <0>         0.0221
     14 C11        -2.4566   -3.7613    0.2898 C.2       1 <0>        -0.3711
     15 S1         -1.6430   -2.1766    0.1348 S.3       1 <0>         0.2639
     16 C12        -1.5722   -6.0668    0.4080 C.ar      1 <0>        -0.0132
     17 C13        -2.8587   -6.6032    0.4074 C.ar      1 <0>        -0.1140
     18 C14        -3.0380   -7.9676    0.5139 C.ar      1 <0>        -0.1460
     19 C15        -1.9401   -8.8074    0.6212 C.ar      1 <0>         0.0500
     20 C16        -0.6527   -8.2773    0.6224 C.ar      1 <0>         0.0400
     21 C17        -0.4677   -6.9107    0.5105 C.ar      1 <0>        -0.1076
     22 O2          0.4228   -9.1029    0.7277 O.3       1 <0>        -0.2757
     23 O3         -2.1211  -10.1513    0.7260 O.3       1 <0>        -0.2780
     24 H1          2.3491    4.0101   -0.8241 H         1 <0>         0.0819
     25 H2          4.0390    4.0673   -1.0603 H         1 <0>         0.1101
     26 H3          2.9085    4.0947   -2.4349 H         1 <0>         0.1104
     27 H4          1.1638    3.1675    0.1352 H         1 <0>         0.1398
     28 H5         -0.4652    1.8753    1.4446 H         1 <0>         0.1407
     29 H6         -0.4369   -0.5822    1.3773 H         1 <0>         0.1536
     30 H7          2.8638   -0.4886   -1.3380 H         1 <0>         0.1592
     31 H8          2.0624   -2.5635   -0.1236 H         1 <0>         0.2634
     32 H9         -3.5094   -3.9913    0.3613 H         1 <0>         0.1977
     33 H10        -3.7154   -5.9511    0.3232 H         1 <0>         0.1338
     34 H11        -4.0354   -8.3818    0.5134 H         1 <0>         0.1435
     35 H12         0.5304   -6.4984    0.5064 H         1 <0>         0.1650
     36 H13         0.7644   -9.4141   -0.1217 H         1 <0>         0.2214
     37 H14        -2.1430  -10.6127   -0.1236 H         1 <0>         0.2221
@<TRIPOS>BOND
     1    1    2 1
     2    1   24 1
     3    1   25 1
     4    1   26 1
     5    2    3 2
     6    2    4 1
     7    4    9 ar
     8    4    5 ar
     9    5    6 ar
    10    5   27 1
    11    6    7 ar
    12    6   28 1
    13    7    8 ar
    14    7   29 1
    15    8    9 ar
    16    8   10 1
    17    9   30 1
    18   10   11 1
    19   10   31 1
    20   11   15 1
    21   11   12 2
    22   12   13 1
    23   13   14 2
    24   13   16 1
    25   14   15 1
    26   14   32 1
    27   16   21 ar
    28   16   17 ar
    29   17   18 ar
    30   17   33 1
    31   18   19 ar
    32   18   34 1
    33   19   20 ar
    34   19   23 1
    35   20   21 ar
    36   20   22 1
    37   21   35 1
    38   22   36 1
    39   23   37 1
@<TRIPOS>MOLECULE
ZINC00790039
   43    44     0     0     0
SMALL
USER_CHARGES

@<TRIPOS>ATOM
      1 C1          1.8797   -8.3718    1.2555 C.3       1 <0>        -0.2354
      2 C2          1.9788   -6.8794    1.0714 C.2       1 <0>         0.3031
      3 O1          2.8849   -6.2630    1.5915 O.2       1 <0>        -0.3716
      4 N1          1.0608   -6.2295    0.3288 N.am      1 <0>        -0.3143
      5 C3          1.0945   -4.8303    0.2390 C.ar      1 <0>         0.0561
      6 C4          2.3120   -4.1642    0.2375 C.ar      1 <0>        -0.1691
      7 C5          2.3453   -2.7828    0.1488 C.ar      1 <0>         0.0424
      8 C6          1.1567   -2.0617    0.0610 C.ar      1 <0>         0.0554
      9 C7         -0.0607   -2.7273    0.0682 C.ar      1 <0>        -0.1824
     10 C8         -0.0937   -4.1095    0.1517 C.ar      1 <0>         0.0503
     11 O2         -1.2872   -4.7625    0.1540 O.3       1 <0>        -0.2216
     12 C9         -2.4659   -3.9601    0.0616 C.3       1 <0>        -0.0637
     13 N2          1.1903   -0.6633   -0.0288 N.am      1 <0>        -0.3014
     14 C10         0.1624    0.0006   -0.5936 C.2       1 <0>         0.3482
     15 O3         -0.7461   -0.6160   -1.1156 O.2       1 <0>        -0.3558
     16 C11         0.1395    1.4786   -0.5783 C.ar      1 <0>        -0.1327
     17 C12         1.1811    2.1897    0.0204 C.ar      1 <0>        -0.0657
     18 C13         1.1535    3.5687    0.0312 C.ar      1 <0>        -0.1411
     19 C14         0.0965    4.2473   -0.5495 C.ar      1 <0>        -0.0496
     20 C15        -0.9386    3.5487   -1.1448 C.ar      1 <0>        -0.1203
     21 C16        -0.9207    2.1692   -1.1673 C.ar      1 <0>        -0.0131
     22 N3         -2.0649    4.2828   -1.7639 N.pl3     1 <0>         0.5486
     23 O4         -2.0798    5.5007   -1.7490 O.2       1 <0>        -0.3536
     24 O5         -2.9770    3.6691   -2.2884 O.3       1 <0>        -0.3455
     25 O6          3.5388   -2.1299    0.1470 O.3       1 <0>        -0.2288
     26 C17         4.7175   -2.9324    0.2397 C.3       1 <0>        -0.0626
     27 H1          1.0085   -8.7470    0.7185 H         1 <0>         0.0811
     28 H2          2.7796   -8.8467    0.8647 H         1 <0>         0.1109
     29 H3          1.7792   -8.6011    2.3163 H         1 <0>         0.1154
     30 H4          0.3768   -6.7295   -0.1435 H         1 <0>         0.2426
     31 H5          3.2335   -4.7233    0.3052 H         1 <0>         0.1792
     32 H6         -0.9824   -2.1680    0.0046 H         1 <0>         0.1830
     33 H7         -3.3455   -4.6037    0.0740 H         1 <0>         0.1054
     34 H8         -2.5057   -3.2742    0.9079 H         1 <0>         0.0701
     35 H9         -2.4457   -3.3902   -0.8673 H         1 <0>         0.0818
     36 H10         1.9535   -0.1734    0.3155 H         1 <0>         0.2431
     37 H11         2.0067    1.6613    0.4736 H         1 <0>         0.1424
     38 H12         1.9588    4.1201    0.4937 H         1 <0>         0.1522
     39 H13         0.0797    5.3271   -0.5383 H         1 <0>         0.1687
     40 H14        -1.7274    1.6251   -1.6359 H         1 <0>         0.1899
     41 H15         4.7576   -3.6183   -0.6064 H         1 <0>         0.0712
     42 H16         5.5972   -2.2889    0.2278 H         1 <0>         0.1037
     43 H17         4.6969   -3.5023    1.1687 H         1 <0>         0.0831
@<TRIPOS>BOND
     1    1    2 1
     2    1   27 1
     3    1   28 1
     4    1   29 1
     5    2    3 2
     6    2    4 am
     7    4    5 1
     8    4   30 1
     9    5   10 ar
    10    5    6 ar
    11    6    7 ar
    12    6   31 1
    13    7    8 ar
    14    7   25 1
    15    8    9 ar
    16    8   13 1
    17    9   10 ar
    18    9   32 1
    19   10   11 1
    20   11   12 1
    21   12   33 1
    22   12   34 1
    23   12   35 1
    24   13   14 am
    25   13   36 1
    26   14   15 2
    27   14   16 1
    28   16   21 ar
    29   16   17 ar
    30   17   18 ar
    31   17   37 1
    32   18   19 ar
    33   18   38 1
    34   19   20 ar
    35   19   39 1
    36   20   21 ar
    37   20   22 1
    38   21   40 1
    39   22   23 2
    40   22   24 1
    41   25   26 1
    42   26   41 1
    43   26   42 1
    44   26   43 1
@<TRIPOS>MOLECULE
ZINC00795157
   43    45     0     0     0
SMALL
USER_CHARGES

@<TRIPOS>ATOM
      1 C1         -0.8623    7.8287    0.8637 C.3       1 <0>        -0.0625
      2 O1         -0.9075    6.4074    1.0046 O.3       1 <0>        -0.2022
      3 C2          0.0882    5.6968    0.4126 C.ar      1 <0>         0.1469
      4 C3          0.1051    4.3139    0.5101 C.ar      1 <0>        -0.1954
      5 C4          1.1219    3.5881   -0.0950 C.ar      1 <0>         0.1266
      6 C5          2.1244    4.2479   -0.7926 C.ar      1 <0>        -0.2318
      7 C6          2.1032    5.6305   -0.8941 C.ar      1 <0>         0.1472
      8 C7          1.0869    6.3550   -0.2893 C.ar      1 <0>        -0.3291
      9 O2          3.0812    6.2763   -1.5821 O.3       1 <0>        -0.2099
     10 C8          2.9997    7.7017   -1.6414 C.3       1 <0>        -0.0615
     11 N1          1.1395    2.1925    0.0030 N.am      1 <0>        -0.3231
     12 C9         -0.0183    1.5026    0.0085 C.2       1 <0>         0.3060
     13 O3         -1.0769    2.0946    0.0080 O.2       1 <0>        -0.3323
     14 C10         0.0024   -0.0042    0.0089 C.3       1 <0>        -0.1837
     15 C11        -1.4330   -0.5340    0.0156 C.3       1 <0>        -0.2203
     16 H1         -1.9822   -0.1144   -0.8272 H         1 <0>         0.1826
     17 C12        -1.4183   -2.0374   -0.0820 C.2       1 <0>         0.3064
     18 O4         -1.5987   -2.5467   -1.1680 O.2       1 <0>        -0.3419
     19 N2         -1.2179   -2.8327    0.9637 N.am      1 <0>        -0.3027
     20 C13        -1.1112   -2.4428    2.2953 C.ar      1 <0>         0.0637
     21 C14        -0.5561   -3.3242    3.2181 C.ar      1 <0>        -0.1624
     22 C15        -0.4208   -2.9532    4.5411 C.ar      1 <0>        -0.0981
     23 C16        -0.8353   -1.7037    4.9650 C.ar      1 <0>        -0.1447
     24 C17        -1.3927   -0.8192    4.0600 C.ar      1 <0>        -0.0717
     25 C18        -1.5327   -1.1873    2.7320 C.ar      1 <0>        -0.2527
     26 S1         -2.2502   -0.0658    1.5719 S.3       1 <0>         0.2257
     27 H2         -0.9042    8.0906   -0.1935 H         1 <0>         0.0680
     28 H3         -1.7124    8.2725    1.3819 H         1 <0>         0.1091
     29 H4          0.0643    8.2074    1.2953 H         1 <0>         0.0654
     30 H5         -0.6730    3.8014    1.0565 H         1 <0>         0.1796
     31 H6          2.9184    3.6842   -1.2596 H         1 <0>         0.1427
     32 H7          1.0731    7.4323   -0.3652 H         1 <0>         0.1396
     33 H8          3.8389    8.0899   -2.2186 H         1 <0>         0.1082
     34 H9          2.0644    7.9926   -2.1195 H         1 <0>         0.0690
     35 H10         3.0337    8.1099   -0.6313 H         1 <0>         0.0672
     36 H11         1.9851    1.7214    0.0669 H         1 <0>         0.2348
     37 H12         0.5171   -0.3608   -0.8833 H         1 <0>         0.1206
     38 H13         0.5252   -0.3601    0.8967 H         1 <0>         0.1131
     39 H14        -1.1375   -3.7817    0.7799 H         1 <0>         0.2454
     40 H15        -0.2299   -4.3027    2.8980 H         1 <0>         0.1353
     41 H16         0.0115   -3.6438    5.2501 H         1 <0>         0.1356
     42 H17        -0.7235   -1.4192    6.0008 H         1 <0>         0.1379
     43 H18        -1.7181    0.1570    4.3879 H         1 <0>         0.1493
@<TRIPOS>BOND
     1    1    2 1
     2    1   27 1
     3    1   28 1
     4    1   29 1
     5    2    3 1
     6    3    8 ar
     7    3    4 ar
     8    4    5 ar
     9    4   30 1
    10    5    6 ar
    11    5   11 1
    12    6    7 ar
    13    6   31 1
    14    7    8 ar
    15    7    9 1
    16    8   32 1
    17    9   10 1
    18   10   33 1
    19   10   34 1
    20   10   35 1
    21   11   12 am
    22   11   36 1
    23   12   13 2
    24   12   14 1
    25   14   15 1
    26   14   37 1
    27   14   38 1
    28   15   16 1
    29   15   26 1
    30   15   17 1
    31   17   18 2
    32   17   19 am
    33   19   20 1
    34   19   39 1
    35   20   25 ar
    36   20   21 ar
    37   21   22 ar
    38   21   40 1
    39   22   23 ar
    40   22   41 1
    41   23   24 ar
    42   23   42 1
    43   24   25 ar
    44   24   43 1
    45   25   26 1
@<TRIPOS>MOLECULE
ZINC00797907
   46    49     0     0     0
SMALL
USER_CHARGES

@<TRIPOS>ATOM
      1 C1         -1.4421    3.3199   -6.0275 C.3       1 <0>        -0.0650
      2 O1         -1.2946    3.9489   -4.7529 O.3       1 <0>        -0.1993
      3 C2         -0.0382    4.3226   -4.3905 C.ar      1 <0>         0.0814
      4 C3          1.0288    4.0889   -5.2430 C.ar      1 <0>        -0.2135
      5 C4          2.3054    4.4690   -4.8729 C.ar      1 <0>        -0.0967
      6 C5          2.5208    5.0829   -3.6531 C.ar      1 <0>        -0.1386
      7 C6          1.4607    5.3190   -2.7978 C.ar      1 <0>        -0.0513
      8 C7          0.1795    4.9349   -3.1600 C.ar      1 <0>         0.0448
      9 O2         -0.8636    5.1614   -2.3174 O.3       1 <0>        -0.2253
     10 C8         -1.5499    6.4073   -2.4547 C.3       1 <0>        -0.0649
     11 C9          1.6993    5.9884   -1.4689 C.3       1 <0>         0.0939
     12 H1          0.7538    6.1014   -0.9384 H         1 <0>         0.1254
     13 C10         2.6488    5.1582   -0.6446 C.2       1 <0>        -0.2548
     14 C11         2.4263    3.9375   -0.0005 C.2       1 <0>         0.0105
     15 N1          3.5460    3.5869    0.6033 N.2       1 <0>        -0.0587
     16 N2          4.5118    4.5736    0.3510 N.pl3     1 <0>        -0.1739
     17 H2          5.4565    4.5691    0.6790 H         1 <0>         0.2874
     18 C12         3.9415    5.5292   -0.4118 C.2       1 <0>         0.1018
     19 O3          4.4735    6.6768   -0.9018 O.3       1 <0>        -0.1370
     20 C13         3.6230    7.5953   -1.4033 C.2       1 <0>         0.2738
     21 C14         2.3258    7.3432   -1.6870 C.2       1 <0>        -0.2614
     22 C15         1.5167    8.4007   -2.2138 C.1       1 <0>        -0.0610
     23 N3          0.8748    9.2396   -2.6318 N.1       1 <0>        -0.0798
     24 N4          4.1026    8.8595   -1.6399 N.pl3     1 <0>        -0.3891
     25 C16         1.1536    3.1739    0.0081 C.ar      1 <0>        -0.0232
     26 C17         1.1740    1.7809    0.0004 C.ar      1 <0>        -0.0979
     27 C18        -0.0126    1.0758    0.0080 C.ar      1 <0>        -0.1382
     28 C19        -1.2204    1.7498    0.0174 C.ar      1 <0>        -0.1170
     29 C20        -1.2464    3.1327    0.0308 C.ar      1 <0>        -0.1179
     30 C21        -0.0658    3.8477    0.0234 C.ar      1 <0>        -0.0834
     31 H3         -0.8462    2.4075   -6.0536 H         1 <0>         0.0685
     32 H4         -2.4911    3.0735   -6.1918 H         1 <0>         0.1078
     33 H5         -1.1015    3.9988   -6.8093 H         1 <0>         0.0656
     34 H6          0.8631    3.6101   -6.1968 H         1 <0>         0.1357
     35 H7          3.1362    4.2862   -5.5383 H         1 <0>         0.1295
     36 H8          3.5195    5.3790   -3.3678 H         1 <0>         0.1320
     37 H9         -2.3576    6.4596   -1.7247 H         1 <0>         0.0985
     38 H10        -0.8522    7.2271   -2.2840 H         1 <0>         0.0636
     39 H11        -1.9633    6.4854   -3.4603 H         1 <0>         0.0704
     40 H12         5.0294    9.0707   -1.4466 H         1 <0>         0.2289
     41 H13         3.5147    9.5417   -2.0003 H         1 <0>         0.2610
     42 H14         2.1165    1.2537   -0.0118 H         1 <0>         0.1386
     43 H15         0.0021   -0.0041    0.0020 H         1 <0>         0.1286
     44 H16        -2.1466    1.1942    0.0184 H         1 <0>         0.1269
     45 H17        -2.1922    3.6540    0.0423 H         1 <0>         0.1329
     46 H18        -0.0873    4.9275    0.0290 H         1 <0>         0.1402
@<TRIPOS>BOND
     1    1    2 1
     2    1   31 1
     3    1   32 1
     4    1   33 1
     5    2    3 1
     6    3    8 ar
     7    3    4 ar
     8    4    5 ar
     9    4   34 1
    10    5    6 ar
    11    5   35 1
    12    6    7 ar
    13    6   36 1
    14    7    8 ar
    15    7   11 1
    16    8    9 1
    17    9   10 1
    18   10   37 1
    19   10   38 1
    20   10   39 1
    21   11   12 1
    22   11   21 1
    23   11   13 1
    24   13   18 2
    25   13   14 1
    26   14   15 2
    27   14   25 1
    28   15   16 1
    29   16   17 1
    30   16   18 1
    31   18   19 1
    32   19   20 1
    33   20   21 2
    34   20   24 1
    35   21   22 1
    36   22   23 3
    37   24   40 1
    38   24   41 1
    39   25   30 ar
    40   25   26 ar
    41   26   27 ar
    42   26   42 1
    43   27   28 ar
    44   27   43 1
    45   28   29 ar
    46   28   44 1
    47   29   30 ar
    48   29   45 1
    49   30   46 1
@<TRIPOS>MOLECULE
ZINC00797907
   46    49     0     0     0
SMALL
USER_CHARGES

@<TRIPOS>ATOM
      1 C1         -1.4382    3.3194   -6.0311 C.3       1 <0>        -0.0649
      2 O1         -1.2916    3.9481   -4.7562 O.3       1 <0>        -0.2007
      3 C2         -0.0356    4.3222   -4.3930 C.ar      1 <0>         0.0802
      4 C3          1.0320    4.0892   -5.2450 C.ar      1 <0>        -0.2148
      5 C4          2.3082    4.4697   -4.8741 C.ar      1 <0>        -0.0965
      6 C5          2.5227    5.0833   -3.6540 C.ar      1 <0>        -0.1371
      7 C6          1.4621    5.3187   -2.7992 C.ar      1 <0>        -0.0505
      8 C7          0.1812    4.9342   -3.1622 C.ar      1 <0>         0.0405
      9 O2         -0.8624    5.1600   -2.3201 O.3       1 <0>        -0.2295
     10 C8         -1.5492    6.4056   -2.4573 C.3       1 <0>        -0.0652
     11 C9          1.6997    5.9878   -1.4699 C.3       1 <0>         0.0963
     12 H1          0.7538    6.1002   -0.9399 H         1 <0>         0.1196
     13 C10         2.6491    5.1577   -0.6454 C.2       1 <0>        -0.2714
     14 C11         2.4268    3.9367   -0.0018 C.2       1 <0>         0.0472
     15 N1          3.5457    3.5874    0.6041 N.pl3     1 <0>        -0.1350
     16 N2          4.5113    4.5744    0.3524 N.2       1 <0>        -0.0964
     17 H2          3.6824    2.7605    1.1496 H         1 <0>         0.2924
     18 C12         3.9412    5.5297   -0.4109 C.2       1 <0>         0.0805
     19 O3          4.4731    6.6775   -0.9007 O.3       1 <0>        -0.1058
     20 C13         3.6223    7.5957   -1.4024 C.2       1 <0>         0.2769
     21 C14         2.3256    7.3427   -1.6878 C.2       1 <0>        -0.2748
     22 C15         1.5163    8.3996   -2.2154 C.1       1 <0>        -0.0586
     23 N3          0.8743    9.2381   -2.6340 N.1       1 <0>        -0.0866
     24 N4          4.1012    8.8604   -1.6382 N.pl3     1 <0>        -0.3868
     25 C16         1.1544    3.1726    0.0059 C.ar      1 <0>        -0.0516
     26 C17         1.1754    1.7796   -0.0023 C.ar      1 <0>        -0.1187
     27 C18        -0.0109    1.0740    0.0045 C.ar      1 <0>        -0.1308
     28 C19        -1.2190    1.7475    0.0135 C.ar      1 <0>        -0.1129
     29 C20        -1.2456    3.1304    0.0273 C.ar      1 <0>        -0.1120
     30 C21        -0.0653    3.8459    0.0207 C.ar      1 <0>        -0.0726
     31 H3         -0.8419    2.4073   -6.0571 H         1 <0>         0.0677
     32 H4         -2.4870    3.0726   -6.1960 H         1 <0>         0.1073
     33 H5         -1.0975    3.9987   -6.8125 H         1 <0>         0.0665
     34 H6          0.8670    3.6106   -6.1990 H         1 <0>         0.1355
     35 H7          3.1394    4.2875   -5.5391 H         1 <0>         0.1305
     36 H8          3.5211    5.3798   -3.3681 H         1 <0>         0.1367
     37 H9         -2.3573    6.4573   -1.7277 H         1 <0>         0.0969
     38 H10        -0.8519    7.2257   -2.2860 H         1 <0>         0.0661
     39 H11        -1.9621    6.4839   -3.4631 H         1 <0>         0.0711
     40 H12         5.0275    9.0723   -1.4437 H         1 <0>         0.2310
     41 H13         3.5132    9.5422   -1.9992 H         1 <0>         0.2590
     42 H14         2.1181    1.2528   -0.0141 H         1 <0>         0.1236
     43 H15         0.0042   -0.0059   -0.0018 H         1 <0>         0.1311
     44 H16        -2.1450    1.1915    0.0138 H         1 <0>         0.1311
     45 H17        -2.1916    3.6513    0.0385 H         1 <0>         0.1378
     46 H18        -0.0873    4.9257    0.0267 H         1 <0>         0.1478
@<TRIPOS>BOND
     1    1    2 1
     2    1   31 1
     3    1   32 1
     4    1   33 1
     5    2    3 1
     6    3    8 ar
     7    3    4 ar
     8    4    5 ar
     9    4   34 1
    10    5    6 ar
    11    5   35 1
    12    6    7 ar
    13    6   36 1
    14    7    8 ar
    15    7   11 1
    16    8    9 1
    17    9   10 1
    18   10   37 1
    19   10   38 1
    20   10   39 1
    21   11   12 1
    22   11   21 1
    23   11   13 1
    24   13   18 1
    25   13   14 2
    26   14   25 1
    27   14   15 1
    28   15   17 1
    29   15   16 1
    30   16   18 2
    31   18   19 1
    32   19   20 1
    33   20   21 2
    34   20   24 1
    35   21   22 1
    36   22   23 3
    37   24   40 1
    38   24   41 1
    39   25   30 ar
    40   25   26 ar
    41   26   27 ar
    42   26   42 1
    43   27   28 ar
    44   27   43 1
    45   28   29 ar
    46   28   44 1
    47   29   30 ar
    48   29   45 1
    49   30   46 1
@<TRIPOS>MOLECULE
ZINC00798337
   43    45     0     0     0
SMALL
USER_CHARGES

@<TRIPOS>ATOM
      1 C1         -9.2188   -5.3842   -0.7606 C.3       1 <0>        -0.1851
      2 C2         -7.8060   -5.9087   -0.7510 C.2       1 <0>         0.0234
      3 C3         -7.5554   -7.2401   -0.8509 C.2       1 <0>        -0.2674
      4 C4         -6.2246   -7.7060   -0.8391 C.2       1 <0>         0.3575
      5 O1         -6.0140   -8.9022   -0.9297 O.2       1 <0>        -0.3006
      6 O2         -5.1840   -6.8652   -0.7309 O.3       1 <0>        -0.1686
      7 C5         -5.3637   -5.5309   -0.6281 C.ar      1 <0>         0.1616
      8 C6         -6.6661   -4.9970   -0.6333 C.ar      1 <0>        -0.1811
      9 C7         -6.8570   -3.6148   -0.5280 C.ar      1 <0>        -0.0335
     10 C8         -5.7771   -2.7877   -0.4141 C.ar      1 <0>        -0.2517
     11 C9         -4.4854   -3.3098   -0.4137 C.ar      1 <0>         0.1418
     12 C10        -4.2780   -4.6758   -0.5176 C.ar      1 <0>        -0.1768
     13 O3         -3.4215   -2.4738   -0.3051 O.3       1 <0>        -0.1674
     14 C11        -3.7023   -1.0765   -0.2015 C.3       1 <0>        -0.0368
     15 C12        -2.4090   -0.3111   -0.0899 C.2       1 <0>         0.2966
     16 O4         -1.3509   -0.9038   -0.0983 O.2       1 <0>        -0.3042
     17 N1         -2.4281    1.0321    0.0192 N.am      1 <0>        -0.3299
     18 C13        -1.2279    1.7520    0.0117 C.ar      1 <0>         0.0497
     19 C14        -1.1113    2.9164    0.7624 C.ar      1 <0>        -0.1350
     20 C15         0.0734    3.6292    0.7639 C.ar      1 <0>        -0.1236
     21 C16         1.1475    3.1937    0.0158 C.ar      1 <0>        -0.1073
     22 C17         1.0398    2.0269   -0.7477 C.ar      1 <0>        -0.1383
     23 C18        -0.1585    1.3072   -0.7483 C.ar      1 <0>        -0.0681
     24 C19         2.1835    1.5585   -1.5468 C.2       1 <0>         0.2641
     25 O5          2.0874    0.5465   -2.2079 O.2       1 <0>        -0.2774
     26 C20         3.4741    2.3365   -1.5435 C.3       1 <0>        -0.2525
     27 H1         -9.5975   -5.3417    0.2606 H         1 <0>         0.1000
     28 H2         -9.2323   -4.3846   -1.1951 H         1 <0>         0.0879
     29 H3         -9.8484   -6.0470   -1.3543 H         1 <0>         0.0965
     30 H4         -8.3733   -7.9398   -0.9394 H         1 <0>         0.1695
     31 H5         -7.8559   -3.2041   -0.5318 H         1 <0>         0.1405
     32 H6         -5.9248   -1.7213   -0.3283 H         1 <0>         0.1346
     33 H7         -3.2737   -5.0732   -0.5128 H         1 <0>         0.1746
     34 H8         -4.3107   -0.8929    0.6841 H         1 <0>         0.0959
     35 H9         -4.2436   -0.7479   -1.0887 H         1 <0>         0.0985
     36 H10        -3.2737    1.4999    0.1030 H         1 <0>         0.2307
     37 H11        -1.9482    3.2632    1.3504 H         1 <0>         0.1310
     38 H12         0.1583    4.5303    1.3532 H         1 <0>         0.1361
     39 H13         2.0712    3.7532    0.0200 H         1 <0>         0.1364
     40 H14        -0.2489    0.4055   -1.3358 H         1 <0>         0.1821
     41 H15         4.0640    2.0005   -0.8092 H         1 <0>         0.1006
     42 H16         3.9779    2.2087   -2.5016 H         1 <0>         0.1076
     43 H17         3.2608    3.3934   -1.3834 H         1 <0>         0.0876
@<TRIPOS>BOND
     1    1    2 1
     2    1   27 1
     3    1   28 1
     4    1   29 1
     5    2    8 1
     6    2    3 2
     7    3    4 1
     8    3   30 1
     9    4    5 2
    10    4    6 1
    11    6    7 1
    12    7   12 ar
    13    7    8 ar
    14    8    9 ar
    15    9   10 ar
    16    9   31 1
    17   10   11 ar
    18   10   32 1
    19   11   12 ar
    20   11   13 1
    21   12   33 1
    22   13   14 1
    23   14   15 1
    24   14   34 1
    25   14   35 1
    26   15   16 2
    27   15   17 am
    28   17   18 1
    29   17   36 1
    30   18   23 ar
    31   18   19 ar
    32   19   20 ar
    33   19   37 1
    34   20   21 ar
    35   20   38 1
    36   21   22 ar
    37   21   39 1
    38   22   23 ar
    39   22   24 1
    40   23   40 1
    41   24   25 2
    42   24   26 1
    43   26   41 1
    44   26   42 1
    45   26   43 1
@<TRIPOS>MOLECULE
ZINC00798419
   41    42     0     0     0
SMALL
USER_CHARGES

@<TRIPOS>ATOM
      1 C1         -2.7048    4.2744   -4.3763 C.3       1 <0>        -0.2116
      2 C2         -1.2584    3.8038   -4.2108 C.3       1 <0>        -0.2411
      3 H1         -1.0877    2.9272   -4.8357 H         1 <0>         0.1453
      4 C3         -0.3203    4.9075   -4.6266 C.2       1 <0>         0.3187
      5 O1          0.2061    5.6050   -3.7855 O.2       1 <0>        -0.3510
      6 N1         -0.0663    5.1195   -5.9331 N.am      1 <0>        -0.3164
      7 C4          0.7270    6.2035   -6.3247 C.ar      1 <0>         0.0566
      8 C5          0.4532    6.8741   -7.5096 C.ar      1 <0>        -0.1569
      9 C6          1.2349    7.9470   -7.8907 C.ar      1 <0>        -0.1122
     10 C7          2.2961    8.3468   -7.0993 C.ar      1 <0>        -0.1416
     11 C8          2.5749    7.6775   -5.9218 C.ar      1 <0>        -0.1132
     12 C9          1.7935    6.6075   -5.5322 C.ar      1 <0>        -0.1256
     13 S1         -0.9573    3.3771   -2.4777 S.3       1 <0>         0.2855
     14 C10        -2.0473    2.0032   -2.3071 C.2       1 <0>         0.0154
     15 N2         -2.7624    1.6130   -3.3413 N.2       1 <0>        -0.3107
     16 C11        -3.6064    0.5738   -3.2439 C.2       1 <0>         0.3248
     17 O2         -4.2668    0.2265   -4.2124 O.2       1 <0>        -0.3431
     18 C12        -3.7278   -0.1155   -2.0208 C.2       1 <0>        -0.3974
     19 C13        -2.9778    0.2939   -0.9560 C.2       1 <0>         0.2259
     20 N3         -2.1312    1.3607   -1.1085 N.pl3     1 <0>        -0.2172
     21 C14        -1.3185    1.8154    0.0223 C.3       1 <0>        -0.0069
     22 C15         0.0017    1.0886    0.0165 C.2       1 <0>        -0.2198
     23 C16         1.1226    1.7665    0.0104 C.2       1 <0>        -0.1713
     24 N4         -3.0709   -0.3552    0.2533 N.pl3     1 <0>        -0.4118
     25 H2         -2.8861    4.5313   -5.4199 H         1 <0>         0.0841
     26 H3         -3.3832    3.4761   -4.0755 H         1 <0>         0.1325
     27 H4         -2.8754    5.1510   -3.7513 H         1 <0>         0.0892
     28 H5         -0.4335    4.5205   -6.6020 H         1 <0>         0.2382
     29 H6         -0.3730    6.5597   -8.1301 H         1 <0>         0.1304
     30 H7          1.0198    8.4717   -8.8098 H         1 <0>         0.1316
     31 H8          2.9083    9.1837   -7.4014 H         1 <0>         0.1296
     32 H9          3.4044    7.9922   -5.3059 H         1 <0>         0.1334
     33 H10         2.0117    6.0852   -4.6125 H         1 <0>         0.1629
     34 H11        -4.4029   -0.9532   -1.9273 H         1 <0>         0.1631
     35 H12        -1.8438    1.6070    0.9544 H         1 <0>         0.1033
     36 H13        -1.1432    2.8877   -0.0641 H         1 <0>         0.1242
     37 H14         0.0236    0.0088    0.0128 H         1 <0>         0.1369
     38 H15         1.1006    2.8463    0.0140 H         1 <0>         0.1219
     39 H16         2.0687    1.2457    0.0017 H         1 <0>         0.1248
     40 H17        -2.5351   -0.0585    1.0056 H         1 <0>         0.2212
     41 H18        -3.6723   -1.1096    0.3538 H         1 <0>         0.2482
@<TRIPOS>BOND
     1    1    2 1
     2    1   25 1
     3    1   26 1
     4    1   27 1
     5    2    3 1
     6    2    4 1
     7    2   13 1
     8    4    5 2
     9    4    6 am
    10    6    7 1
    11    6   28 1
    12    7   12 ar
    13    7    8 ar
    14    8    9 ar
    15    8   29 1
    16    9   10 ar
    17    9   30 1
    18   10   11 ar
    19   10   31 1
    20   11   12 ar
    21   11   32 1
    22   12   33 1
    23   13   14 1
    24   14   20 1
    25   14   15 2
    26   15   16 1
    27   16   17 2
    28   16   18 1
    29   18   19 2
    30   18   34 1
    31   19   20 1
    32   19   24 1
    33   20   21 1
    34   21   22 1
    35   21   35 1
    36   21   36 1
    37   22   23 2
    38   22   37 1
    39   23   38 1
    40   23   39 1
    41   24   40 1
    42   24   41 1
@<TRIPOS>MOLECULE
ZINC00798420
   41    42     0     0     0
SMALL
USER_CHARGES

@<TRIPOS>ATOM
      1 C1          6.3255   -1.0539   -1.7442 C.3       1 <0>        -0.2115
      2 C2          6.0831   -0.7006   -0.2754 C.3       1 <0>        -0.2403
      3 H1          6.0447   -1.6150    0.3167 H         1 <0>         0.1433
      4 C3          4.7755    0.0372   -0.1454 C.2       1 <0>         0.3167
      5 O1          4.7615    1.2500   -0.1390 O.2       1 <0>        -0.3468
      6 N1          3.6216   -0.6506   -0.0364 N.am      1 <0>        -0.3169
      7 C4          2.3993    0.0305   -0.0269 C.ar      1 <0>         0.0599
      8 C5          2.2454    1.1941   -0.7692 C.ar      1 <0>        -0.1261
      9 C6          1.0375    1.8638   -0.7580 C.ar      1 <0>        -0.1109
     10 C7         -0.0177    1.3771   -0.0084 C.ar      1 <0>        -0.1426
     11 C8          0.1324    0.2188    0.7318 C.ar      1 <0>        -0.1110
     12 C9          1.3375   -0.4559    0.7245 C.ar      1 <0>        -0.1583
     13 S1          7.4304    0.3495    0.3229 S.3       1 <0>         0.2853
     14 C10         8.7762   -0.7815    0.2031 C.2       1 <0>         0.0117
     15 N2          8.5565   -2.0037   -0.2344 N.2       1 <0>        -0.3097
     16 C11         9.5599   -2.8887   -0.3424 C.2       1 <0>         0.3247
     17 O2          9.3403   -4.0184   -0.7549 O.2       1 <0>        -0.3426
     18 C12        10.8666   -2.5118    0.0268 C.2       1 <0>        -0.3980
     19 C13        11.0828   -1.2437    0.4842 C.2       1 <0>         0.2286
     20 N3         10.0245   -0.3774    0.5703 N.pl3     1 <0>        -0.2176
     21 C14        10.2359    0.9874    1.0591 C.3       1 <0>        -0.0095
     22 C15        10.0592    1.0181    2.5553 C.2       1 <0>        -0.1988
     23 C16        11.0140    1.4899    3.3181 C.2       1 <0>        -0.1947
     24 N4         12.3453   -0.8414    0.8539 N.pl3     1 <0>        -0.4099
     25 H2          7.2713   -1.5876   -1.8382 H         1 <0>         0.1327
     26 H3          5.5141   -1.6863   -2.1045 H         1 <0>         0.0856
     27 H4          6.3639   -0.1395   -2.3363 H         1 <0>         0.0885
     28 H5          3.6384   -1.6178    0.0355 H         1 <0>         0.2380
     29 H6          3.0693    1.5751   -1.3542 H         1 <0>         0.1585
     30 H7          0.9171    2.7687   -1.3350 H         1 <0>         0.1339
     31 H8         -0.9597    1.9052    0.0024 H         1 <0>         0.1298
     32 H9         -0.6935   -0.1586    1.3165 H         1 <0>         0.1315
     33 H10         1.4540   -1.3607    1.3025 H         1 <0>         0.1300
     34 H11        11.6832   -3.2143   -0.0505 H         1 <0>         0.1634
     35 H12        11.2452    1.3118    0.8057 H         1 <0>         0.1012
     36 H13         9.5117    1.6562    0.5939 H         1 <0>         0.1296
     37 H14         9.1453    0.6511    2.9988 H         1 <0>         0.1489
     38 H15        11.9278    1.8569    2.8747 H         1 <0>         0.1065
     39 H16        10.8873    1.5119    4.3904 H         1 <0>         0.1283
     40 H17        12.4912    0.0611    1.1782 H         1 <0>         0.2204
     41 H18        13.0896   -1.4601    0.7902 H         1 <0>         0.2482
@<TRIPOS>BOND
     1    1    2 1
     2    1   25 1
     3    1   26 1
     4    1   27 1
     5    2    3 1
     6    2    4 1
     7    2   13 1
     8    4    5 2
     9    4    6 am
    10    6    7 1
    11    6   28 1
    12    7   12 ar
    13    7    8 ar
    14    8    9 ar
    15    8   29 1
    16    9   10 ar
    17    9   30 1
    18   10   11 ar
    19   10   31 1
    20   11   12 ar
    21   11   32 1
    22   12   33 1
    23   13   14 1
    24   14   20 1
    25   14   15 2
    26   15   16 1
    27   16   17 2
    28   16   18 1
    29   18   19 2
    30   18   34 1
    31   19   20 1
    32   19   24 1
    33   20   21 1
    34   21   22 1
    35   21   35 1
    36   21   36 1
    37   22   23 2
    38   22   37 1
    39   23   38 1
    40   23   39 1
    41   24   40 1
    42   24   41 1
@<TRIPOS>MOLECULE
ZINC00800924
   43    46     0     0     0
SMALL
USER_CHARGES

@<TRIPOS>ATOM
      1 C1         -4.6995    2.5970    2.8360 C.3       1 <0>        -0.2402
      2 C2         -4.0024    3.8301    2.2578 C.3       1 <0>         0.1176
      3 H1         -3.7335    4.5086    3.0675 H         1 <0>         0.1487
      4 C3         -2.7567    3.4050    1.5239 C.2       1 <0>        -0.0144
      5 N1         -2.4684    3.7181    0.2322 N.pl3     1 <0>        -0.2145
      6 H2         -3.0348    4.2627   -0.3863 H         1 <0>         0.2589
      7 C4         -1.2471    3.1437   -0.0670 C.ar      1 <0>        -0.0537
      8 C5         -0.4536    3.1034   -1.2054 C.ar      1 <0>        -0.1172
      9 C6          0.7466    2.4274   -1.1825 C.ar      1 <0>        -0.1372
     10 C7          1.1707    1.7833   -0.0230 C.ar      1 <0>         0.0411
     11 C8          0.3935    1.8145    1.1177 C.ar      1 <0>        -0.0758
     12 C9         -0.8287    2.4921    1.1051 C.ar      1 <0>        -0.0354
     13 N2         -1.7952    2.6943    2.0372 N.2       1 <0>        -0.1707
     14 O1          2.3576    1.1202   -0.0140 O.3       1 <0>        -0.1509
     15 C10         3.4982    1.8516   -0.1256 C.ar      1 <0>         0.0723
     16 C11         3.4322    3.2425   -0.1156 C.ar      1 <0>        -0.1829
     17 C12         4.5802    3.9959   -0.2274 C.ar      1 <0>        -0.0945
     18 C13         5.8115    3.3668   -0.3509 C.ar      1 <0>        -0.0742
     19 C14         5.8864    1.9641   -0.3619 C.ar      1 <0>        -0.0136
     20 C15         4.7154    1.2108   -0.2424 C.ar      1 <0>        -0.1062
     21 N3          7.1983    1.6386   -0.4926 N.2       1 <0>        -0.1821
     22 C16         7.9139    2.7233   -0.5608 C.2       1 <0>        -0.0106
     23 N4          7.1118    3.8185   -0.4786 N.pl3     1 <0>        -0.2126
     24 H3          7.4077    4.7733   -0.5055 H         1 <0>         0.2540
     25 C17         9.4131    2.7604   -0.7087 C.3       1 <0>         0.1231
     26 H4          9.7586    3.7925   -0.6500 H         1 <0>         0.1179
     27 C18        10.0567    1.9426    0.4129 C.3       1 <0>        -0.2415
     28 O2          9.7808    2.2062   -1.9735 O.3       1 <0>        -0.3371
     29 O3         -4.8851    4.4955    1.3522 O.3       1 <0>        -0.3459
     30 H5         -4.0262    2.0895    3.5268 H         1 <0>         0.1102
     31 H6         -5.6005    2.9045    3.3669 H         1 <0>         0.0921
     32 H7         -4.9685    1.9186    2.0264 H         1 <0>         0.0794
     33 H8         -0.7766    3.6014   -2.1076 H         1 <0>         0.1322
     34 H9          1.3625    2.3971   -2.0691 H         1 <0>         0.1496
     35 H10         0.7266    1.3135    2.0146 H         1 <0>         0.1591
     36 H11         2.4751    3.7337   -0.0199 H         1 <0>         0.1499
     37 H12         4.5223    5.0743   -0.2193 H         1 <0>         0.1293
     38 H13         4.7622    0.1318   -0.2452 H         1 <0>         0.1570
     39 H14         9.7113    0.9105    0.3542 H         1 <0>         0.1011
     40 H15        11.1411    1.9695    0.3059 H         1 <0>         0.0903
     41 H16         9.7762    2.3653    1.3776 H         1 <0>         0.0863
     42 H17         9.5047    1.2876   -2.0957 H         1 <0>         0.2303
     43 H18        -5.1663    3.9500    0.6049 H         1 <0>         0.2109
@<TRIPOS>BOND
     1    1    2 1
     2    1   30 1
     3    1   31 1
     4    1   32 1
     5    2    3 1
     6    2    4 1
     7    2   29 1
     8    4   13 2
     9    4    5 1
    10    5    6 1
    11    5    7 1
    12    7   12 ar
    13    7    8 ar
    14    8    9 ar
    15    8   33 1
    16    9   10 ar
    17    9   34 1
    18   10   11 ar
    19   10   14 1
    20   11   12 ar
    21   11   35 1
    22   12   13 1
    23   14   15 1
    24   15   20 ar
    25   15   16 ar
    26   16   17 ar
    27   16   36 1
    28   17   18 ar
    29   17   37 1
    30   18   23 1
    31   18   19 ar
    32   19   20 ar
    33   19   21 1
    34   20   38 1
    35   21   22 2
    36   22   23 1
    37   22   25 1
    38   23   24 1
    39   25   26 1
    40   25   27 1
    41   25   28 1
    42   27   39 1
    43   27   40 1
    44   27   41 1
    45   28   42 1
    46   29   43 1
@<TRIPOS>MOLECULE
ZINC00800924
   44    47     0     0     0
SMALL
USER_CHARGES

@<TRIPOS>ATOM
      1 C1         -4.6995    2.5970    2.8360 C.3       1 <0>        -0.2525
      2 C2         -4.0024    3.8301    2.2578 C.3       1 <0>         0.0861
      3 H1         -3.7335    4.5086    3.0675 H         1 <0>         0.1738
      4 C3         -2.7567    3.4050    1.5239 C.cat     1 <0>         0.0856
      5 N1         -2.4684    3.7181    0.2322 N.pl3     1 <0>        -0.1397
      6 H2         -3.0348    4.2627   -0.3863 H         1 <0>         0.3117
      7 C4         -1.2471    3.1437   -0.0670 C.ar      1 <0>        -0.0298
      8 C5         -0.4536    3.1034   -1.2054 C.ar      1 <0>        -0.0899
      9 C6          0.7466    2.4274   -1.1825 C.ar      1 <0>        -0.0992
     10 C7          1.1707    1.7833   -0.0230 C.ar      1 <0>         0.1313
     11 C8          0.3935    1.8145    1.1177 C.ar      1 <0>        -0.1166
     12 C9         -0.8287    2.4921    1.1051 C.ar      1 <0>        -0.0347
     13 O1          2.3576    1.1202   -0.0140 O.3       1 <0>        -0.1447
     14 C10         3.4982    1.8516   -0.1256 C.ar      1 <0>         0.0394
     15 C11         3.4322    3.2425   -0.1156 C.ar      1 <0>        -0.2022
     16 C12         4.5802    3.9959   -0.2274 C.ar      1 <0>        -0.0789
     17 C13         5.8115    3.3668   -0.3509 C.ar      1 <0>        -0.0657
     18 C14         5.8864    1.9641   -0.3619 C.ar      1 <0>        -0.0070
     19 C15         4.7154    1.2108   -0.2424 C.ar      1 <0>        -0.0780
     20 N2          7.1983    1.6386   -0.4926 N.2       1 <0>        -0.1772
     21 C16         7.9139    2.7233   -0.5608 C.2       1 <0>         0.0131
     22 N3          7.1118    3.8185   -0.4786 N.pl3     1 <0>        -0.2073
     23 H3          7.4077    4.7733   -0.5055 H         1 <0>         0.2635
     24 C17         9.4131    2.7604   -0.7087 C.3       1 <0>         0.1195
     25 H4          9.7586    3.7925   -0.6500 H         1 <0>         0.1245
     26 C18        10.0567    1.9426    0.4129 C.3       1 <0>        -0.2423
     27 O2          9.7808    2.2062   -1.9735 O.3       1 <0>        -0.3287
     28 O3         -4.8851    4.4955    1.3522 O.3       1 <0>        -0.3055
     29 H5         -4.0262    2.0895    3.5268 H         1 <0>         0.0892
     30 H6         -5.6005    2.9045    3.3669 H         1 <0>         0.1414
     31 H7         -4.9685    1.9186    2.0264 H         1 <0>         0.0997
     32 H8         -0.7766    3.6014   -2.1076 H         1 <0>         0.1671
     33 H9          1.3625    2.3971   -2.0691 H         1 <0>         0.1862
     34 H10         0.7266    1.3135    2.0146 H         1 <0>         0.1762
     35 H11         2.4751    3.7337   -0.0199 H         1 <0>         0.1273
     36 H12         4.5223    5.0743   -0.2193 H         1 <0>         0.1372
     37 H13         4.7622    0.1318   -0.2452 H         1 <0>         0.1654
     38 H14         9.7113    0.9105    0.3542 H         1 <0>         0.1014
     39 H15        11.1411    1.9695    0.3059 H         1 <0>         0.1016
     40 H16         9.7762    2.3653    1.3776 H         1 <0>         0.0864
     41 H17         9.5047    1.2876   -2.0957 H         1 <0>         0.2321
     42 H18        -5.1663    3.9500    0.6049 H         1 <0>         0.2272
     43 N4         -1.7952    2.6939    2.0383 N.pl3     1 <0>        -0.1022
     44 H19        -1.7710    2.3398    3.0018 H         1 <0>         0.3155
@<TRIPOS>BOND
     1    1    2 1
     2    1   29 1
     3    1   30 1
     4    1   31 1
     5    2    3 1
     6    2    4 1
     7    2   28 1
     8    4    5 1
     9    4   43 2
    10    5    6 1
    11    5    7 1
    12    7   12 ar
    13    7    8 ar
    14    8    9 ar
    15    8   32 1
    16    9   10 ar
    17    9   33 1
    18   10   11 ar
    19   10   13 1
    20   11   12 ar
    21   11   34 1
    22   12   43 1
    23   13   14 1
    24   14   19 ar
    25   14   15 ar
    26   15   16 ar
    27   15   35 1
    28   16   17 ar
    29   16   36 1
    30   17   22 1
    31   17   18 ar
    32   18   19 ar
    33   18   20 1
    34   19   37 1
    35   20   21 2
    36   21   22 1
    37   21   24 1
    38   22   23 1
    39   24   25 1
    40   24   26 1
    41   24   27 1
    42   26   38 1
    43   26   39 1
    44   26   40 1
    45   27   41 1
    46   28   42 1
    47   43   44 1
@<TRIPOS>MOLECULE
ZINC00800924
   43    46     0     0     0
SMALL
USER_CHARGES

@<TRIPOS>ATOM
      1 C1         -4.7007    2.5965    2.8315 C.3       1 <0>        -0.2403
      2 C2         -4.0034    3.8297    2.2538 C.3       1 <0>         0.1175
      3 H1         -3.7347    4.5080    3.0638 H         1 <0>         0.1493
      4 C3         -2.7574    3.4047    1.5203 C.2       1 <0>        -0.0135
      5 N1         -2.4687    3.7182    0.2288 N.pl3     1 <0>        -0.2141
      6 H2         -3.0348    4.2630   -0.3898 H         1 <0>         0.2594
      7 C4         -1.2473    3.1438   -0.0702 C.ar      1 <0>        -0.0526
      8 C5         -0.4534    3.1038   -1.2083 C.ar      1 <0>        -0.1157
      9 C6          0.7468    2.4278   -1.1851 C.ar      1 <0>        -0.1360
     10 C7          1.1705    1.7833   -0.0256 C.ar      1 <0>         0.0397
     11 C8          0.3929    1.8143    1.1148 C.ar      1 <0>        -0.0748
     12 C9         -0.8293    2.4919    1.1019 C.ar      1 <0>        -0.0353
     13 N2         -1.7961    2.6939    2.0337 N.2       1 <0>        -0.1710
     14 O1          2.3574    1.1202   -0.0164 O.3       1 <0>        -0.1529
     15 C10         3.4980    1.8516   -0.1274 C.ar      1 <0>         0.1000
     16 C11         3.4321    3.2425   -0.1171 C.ar      1 <0>        -0.2092
     17 C12         4.5801    3.9959   -0.2283 C.ar      1 <0>        -0.0387
     18 C13         5.8115    3.3668   -0.3509 C.ar      1 <0>        -0.0724
     19 C14         5.8863    1.9641   -0.3628 C.ar      1 <0>        -0.0400
     20 C15         4.7152    1.2108   -0.2439 C.ar      1 <0>        -0.1635
     21 N3          7.1982    1.6386   -0.4931 N.pl3     1 <0>        -0.1621
     22 C16         7.9139    2.7233   -0.5608 C.2       1 <0>        -0.0516
     23 N4          7.1118    3.8185   -0.4786 N.2       1 <0>        -0.1558
     24 H3          7.5595    0.7069   -0.5313 H         1 <0>         0.2464
     25 C17         9.4131    2.7604   -0.7087 C.3       1 <0>         0.1162
     26 H4          9.7586    3.7925   -0.6500 H         1 <0>         0.1593
     27 C18        10.0567    1.9426    0.4129 C.3       1 <0>        -0.2517
     28 O2          9.7808    2.2062   -1.9735 O.3       1 <0>        -0.3287
     29 O3         -4.8857    4.4953    1.3481 O.3       1 <0>        -0.3454
     30 H5         -4.0277    2.0888    3.5224 H         1 <0>         0.1100
     31 H6         -5.6019    2.9038    3.3621 H         1 <0>         0.0923
     32 H7         -4.9694    1.9183    2.0216 H         1 <0>         0.0791
     33 H8         -0.7760    3.6020   -2.1105 H         1 <0>         0.1331
     34 H9          1.3630    2.3977   -2.0715 H         1 <0>         0.1497
     35 H10         0.7256    1.3130    2.0117 H         1 <0>         0.1583
     36 H11         2.4749    3.7337   -0.0216 H         1 <0>         0.1506
     37 H12         4.5222    5.0743   -0.2199 H         1 <0>         0.1465
     38 H13         4.7620    0.1318   -0.2470 H         1 <0>         0.1400
     39 H14         9.7113    0.9105    0.3542 H         1 <0>         0.0648
     40 H15        11.1411    1.9695    0.3059 H         1 <0>         0.0998
     41 H16         9.7762    2.3653    1.3776 H         1 <0>         0.0987
     42 H17         9.5047    1.2876   -2.0957 H         1 <0>         0.2039
     43 H18        -5.1667    3.9500    0.6006 H         1 <0>         0.2107
@<TRIPOS>BOND
     1    1    2 1
     2    1   30 1
     3    1   31 1
     4    1   32 1
     5    2    3 1
     6    2    4 1
     7    2   29 1
     8    4   13 2
     9    4    5 1
    10    5    6 1
    11    5    7 1
    12    7   12 ar
    13    7    8 ar
    14    8    9 ar
    15    8   33 1
    16    9   10 ar
    17    9   34 1
    18   10   11 ar
    19   10   14 1
    20   11   12 ar
    21   11   35 1
    22   12   13 1
    23   14   15 1
    24   15   20 ar
    25   15   16 ar
    26   16   17 ar
    27   16   36 1
    28   17   18 ar
    29   17   37 1
    30   18   23 1
    31   18   19 ar
    32   19   20 ar
    33   19   21 1
    34   20   38 1
    35   21   22 1
    36   21   24 1
    37   22   25 1
    38   22   23 2
    39   25   26 1
    40   25   27 1
    41   25   28 1
    42   27   39 1
    43   27   40 1
    44   27   41 1
    45   28   42 1
    46   29   43 1
@<TRIPOS>MOLECULE
ZINC00800924
   43    46     0     0     0
SMALL
USER_CHARGES

@<TRIPOS>ATOM
      1 C1         -4.6995    2.5970    2.8360 C.3       1 <0>        -0.2536
      2 C2         -4.0024    3.8301    2.2578 C.3       1 <0>         0.1218
      3 H1         -3.7335    4.5086    3.0675 H         1 <0>         0.1315
      4 C3         -2.7567    3.4050    1.5239 C.2       1 <0>        -0.0463
      5 N1         -2.4684    3.7181    0.2322 N.2       1 <0>        -0.1638
      6 H2         -1.7778    2.3381    2.9714 H         1 <0>         0.2514
      7 C4         -1.2471    3.1437   -0.0670 C.ar      1 <0>        -0.0490
      8 C5         -0.4621    3.0887   -1.2109 C.ar      1 <0>        -0.0637
      9 C6          0.7323    2.4022   -1.1918 C.ar      1 <0>        -0.1632
     10 C7          1.1532    1.7522   -0.0345 C.ar      1 <0>         0.0670
     11 C8          0.3787    1.7879    1.1080 C.ar      1 <0>        -0.1304
     12 C9         -0.8376    2.4762    1.0993 C.ar      1 <0>        -0.0657
     13 N2         -1.8003    2.6850    2.0338 N.pl3     1 <0>        -0.1580
     14 O1          2.3343    1.0788   -0.0292 O.3       1 <0>        -0.1537
     15 C10         3.4810    1.8004   -0.1418 C.ar      1 <0>         0.0718
     16 C11         3.4271    3.1918   -0.1290 C.ar      1 <0>        -0.1827
     17 C12         4.5814    3.9354   -0.2418 C.ar      1 <0>        -0.0938
     18 C13         5.8069    3.2959   -0.3691 C.ar      1 <0>        -0.0738
     19 C14         5.8695    1.8926   -0.3830 C.ar      1 <0>        -0.0140
     20 C15         4.6923    1.1493   -0.2625 C.ar      1 <0>        -0.1065
     21 N3          7.1783    1.5560   -0.5171 N.2       1 <0>        -0.1825
     22 C16         7.9032    2.6345   -0.5847 C.2       1 <0>        -0.0102
     23 N4          7.1108    3.7365   -0.4987 N.pl3     1 <0>        -0.2123
     24 H3          7.4149    4.6888   -0.5244 H         1 <0>         0.2544
     25 C17         9.4023    2.6589   -0.7357 C.3       1 <0>         0.1231
     26 H4          9.7569    3.6878   -0.6758 H         1 <0>         0.1182
     27 C18        10.0411    1.8333    0.3829 C.3       1 <0>        -0.2415
     28 O2          9.7625    2.1040   -2.0024 O.3       1 <0>        -0.3365
     29 O3         -4.8851    4.4955    1.3522 O.3       1 <0>        -0.3168
     30 H5         -4.0262    2.0895    3.5268 H         1 <0>         0.0731
     31 H6         -5.6005    2.9045    3.3669 H         1 <0>         0.1013
     32 H7         -4.9685    1.9186    2.0264 H         1 <0>         0.0904
     33 H8         -0.7826    3.5912   -2.1114 H         1 <0>         0.1491
     34 H9          1.3460    2.3683   -2.0798 H         1 <0>         0.1502
     35 H10         0.7093    1.2823    2.0032 H         1 <0>         0.1416
     36 H11         2.4745    3.6912   -0.0303 H         1 <0>         0.1515
     37 H12         4.5329    5.0143   -0.2315 H         1 <0>         0.1305
     38 H13         4.7297    0.0699   -0.2675 H         1 <0>         0.1566
     39 H14         9.6866    0.8044    0.3230 H         1 <0>         0.1008
     40 H15        11.1255    1.8510    0.2737 H         1 <0>         0.0906
     41 H16         9.7663    2.2566    1.3490 H         1 <0>         0.0858
     42 H17         9.4782    1.1880   -2.1258 H         1 <0>         0.2304
     43 H18        -5.1663    3.9500    0.6049 H         1 <0>         0.2271
@<TRIPOS>BOND
     1    1    2 1
     2    1   30 1
     3    1   31 1
     4    1   32 1
     5    2    3 1
     6    2    4 1
     7    2   29 1
     8    4    5 2
     9    4   13 1
    10    5    7 1
    11    6   13 1
    12    7   12 ar
    13    7    8 ar
    14    8    9 ar
    15    8   33 1
    16    9   10 ar
    17    9   34 1
    18   10   11 ar
    19   10   14 1
    20   11   12 ar
    21   11   35 1
    22   12   13 1
    23   14   15 1
    24   15   20 ar
    25   15   16 ar
    26   16   17 ar
    27   16   36 1
    28   17   18 ar
    29   17   37 1
    30   18   23 1
    31   18   19 ar
    32   19   20 ar
    33   19   21 1
    34   20   38 1
    35   21   22 2
    36   22   23 1
    37   22   25 1
    38   23   24 1
    39   25   26 1
    40   25   27 1
    41   25   28 1
    42   27   39 1
    43   27   40 1
    44   27   41 1
    45   28   42 1
    46   29   43 1
@<TRIPOS>MOLECULE
ZINC00800924
   45    48     0     0     0
SMALL
USER_CHARGES

@<TRIPOS>ATOM
      1 C1         -4.6995    2.5970    2.8360 C.3       1 <0>        -0.2522
      2 C2         -4.0024    3.8301    2.2578 C.3       1 <0>         0.0820
      3 H1         -3.7335    4.5086    3.0675 H         1 <0>         0.1800
      4 C3         -2.7567    3.4050    1.5239 C.cat     1 <0>         0.1126
      5 N1         -2.4684    3.7181    0.2322 N.pl3     1 <0>        -0.1424
      6 H2         -3.0348    4.2627   -0.3863 H         1 <0>         0.3207
      7 C4         -1.2471    3.1437   -0.0670 C.ar      1 <0>        -0.0135
      8 C5         -0.4536    3.1034   -1.2054 C.ar      1 <0>        -0.0763
      9 C6          0.7466    2.4274   -1.1825 C.ar      1 <0>        -0.1092
     10 C7          1.1707    1.7833   -0.0230 C.ar      1 <0>         0.0838
     11 C8          0.3935    1.8145    1.1177 C.ar      1 <0>        -0.0942
     12 C9         -0.8287    2.4921    1.1051 C.ar      1 <0>        -0.0348
     13 O1          2.3576    1.1202   -0.0140 O.3       1 <0>        -0.1256
     14 C10         3.4982    1.8516   -0.1256 C.ar      1 <0>         0.1201
     15 C11         3.4322    3.2425   -0.1156 C.ar      1 <0>        -0.1651
     16 C12         4.5802    3.9959   -0.2274 C.ar      1 <0>        -0.0512
     17 C13         5.8115    3.3668   -0.3509 C.ar      1 <0>        -0.0407
     18 C14         5.8864    1.9641   -0.3619 C.ar      1 <0>        -0.0073
     19 C15         4.7154    1.2108   -0.2424 C.ar      1 <0>        -0.1175
     20 C16         7.9139    2.7233   -0.5608 C.cat     1 <0>         0.1132
     21 N2          7.1118    3.8185   -0.4786 N.pl3     1 <0>        -0.1331
     22 H3          7.4077    4.7733   -0.5055 H         1 <0>         0.3168
     23 C17         9.4131    2.7604   -0.7087 C.3       1 <0>         0.0810
     24 H4          9.7586    3.7925   -0.6500 H         1 <0>         0.1711
     25 C18        10.0567    1.9426    0.4129 C.3       1 <0>        -0.2525
     26 O2          9.7808    2.2062   -1.9735 O.3       1 <0>        -0.2867
     27 O3         -4.8851    4.4955    1.3522 O.3       1 <0>        -0.2981
     28 H5         -4.0262    2.0895    3.5268 H         1 <0>         0.0890
     29 H6         -5.6005    2.9045    3.3669 H         1 <0>         0.1519
     30 H7         -4.9685    1.9186    2.0264 H         1 <0>         0.1021
     31 H8         -0.7766    3.6014   -2.1076 H         1 <0>         0.1782
     32 H9          1.3625    2.3971   -2.0691 H         1 <0>         0.1807
     33 H10         0.7266    1.3135    2.0146 H         1 <0>         0.1792
     34 H11         2.4751    3.7337   -0.0199 H         1 <0>         0.1649
     35 H12         4.5223    5.0743   -0.2193 H         1 <0>         0.1719
     36 H13         4.7622    0.1318   -0.2452 H         1 <0>         0.1824
     37 H14         9.7113    0.9105    0.3542 H         1 <0>         0.0802
     38 H15        11.1411    1.9695    0.3059 H         1 <0>         0.1508
     39 H16         9.7762    2.3653    1.3776 H         1 <0>         0.1078
     40 H17         9.5047    1.2876   -2.0957 H         1 <0>         0.2252
     41 H18        -5.1663    3.9500    0.6049 H         1 <0>         0.2301
     42 N3         -1.7952    2.6939    2.0383 N.pl3     1 <0>        -0.1062
     43 H19        -1.7710    2.3398    3.0018 H         1 <0>         0.3228
     44 N4          7.1988    1.6375   -0.4926 N.pl3     1 <0>        -0.1108
     45 H20         7.5697    0.6809   -0.5317 H         1 <0>         0.3192
@<TRIPOS>BOND
     1    1    2 1
     2    1   28 1
     3    1   29 1
     4    1   30 1
     5    2    3 1
     6    2    4 1
     7    2   27 1
     8    4    5 1
     9    4   42 2
    10    5    6 1
    11    5    7 1
    12    7   12 ar
    13    7    8 ar
    14    8    9 ar
    15    8   31 1
    16    9   10 ar
    17    9   32 1
    18   10   11 ar
    19   10   13 1
    20   11   12 ar
    21   11   33 1
    22   12   42 1
    23   13   14 1
    24   14   19 ar
    25   14   15 ar
    26   15   16 ar
    27   15   34 1
    28   16   17 ar
    29   16   35 1
    30   17   21 1
    31   17   18 ar
    32   18   19 ar
    33   18   44 1
    34   19   36 1
    35   20   21 1
    36   20   23 1
    37   20   44 2
    38   21   22 1
    39   23   24 1
    40   23   25 1
    41   23   26 1
    42   25   37 1
    43   25   38 1
    44   25   39 1
    45   26   40 1
    46   27   41 1
    47   42   43 1
    48   44   45 1
@<TRIPOS>MOLECULE
ZINC00800924
   44    47     0     0     0
SMALL
USER_CHARGES

@<TRIPOS>ATOM
      1 C1         -4.6995    2.5970    2.8360 C.3       1 <0>        -0.2408
      2 C2         -4.0024    3.8301    2.2578 C.3       1 <0>         0.1142
      3 H1         -3.7335    4.5086    3.0675 H         1 <0>         0.1545
      4 C3         -2.7567    3.4050    1.5239 C.2       1 <0>         0.0082
      5 N1         -2.4684    3.7181    0.2322 N.pl3     1 <0>        -0.2080
      6 H2         -3.0348    4.2627   -0.3863 H         1 <0>         0.2690
      7 C4         -1.2471    3.1437   -0.0670 C.ar      1 <0>        -0.0447
      8 C5         -0.4536    3.1034   -1.2054 C.ar      1 <0>        -0.1008
      9 C6          0.7466    2.4274   -1.1825 C.ar      1 <0>        -0.1498
     10 C7          1.1707    1.7833   -0.0230 C.ar      1 <0>        -0.0076
     11 C8          0.3935    1.8145    1.1177 C.ar      1 <0>        -0.0553
     12 C9         -0.8287    2.4921    1.1051 C.ar      1 <0>        -0.0320
     13 N2         -1.7952    2.6943    2.0372 N.2       1 <0>        -0.1680
     14 O1          2.3576    1.1202   -0.0140 O.3       1 <0>        -0.1204
     15 C10         3.4982    1.8516   -0.1256 C.ar      1 <0>         0.1489
     16 C11         3.4322    3.2425   -0.1156 C.ar      1 <0>        -0.1470
     17 C12         4.5802    3.9959   -0.2274 C.ar      1 <0>        -0.0652
     18 C13         5.8115    3.3668   -0.3509 C.ar      1 <0>        -0.0568
     19 C14         5.8864    1.9641   -0.3619 C.ar      1 <0>        -0.0097
     20 C15         4.7154    1.2108   -0.2424 C.ar      1 <0>        -0.1489
     21 C16         7.9139    2.7233   -0.5608 C.cat     1 <0>         0.0832
     22 N3          7.1118    3.8185   -0.4786 N.pl3     1 <0>        -0.1286
     23 H3          7.4077    4.7733   -0.5055 H         1 <0>         0.3082
     24 C17         9.4131    2.7604   -0.7087 C.3       1 <0>         0.0855
     25 H4          9.7586    3.7925   -0.6500 H         1 <0>         0.1640
     26 C18        10.0567    1.9426    0.4129 C.3       1 <0>        -0.2524
     27 O2          9.7808    2.2062   -1.9735 O.3       1 <0>        -0.2961
     28 O3         -4.8851    4.4955    1.3522 O.3       1 <0>        -0.3394
     29 H5         -4.0262    2.0895    3.5268 H         1 <0>         0.1100
     30 H6         -5.6005    2.9045    3.3669 H         1 <0>         0.1030
     31 H7         -4.9685    1.9186    2.0264 H         1 <0>         0.0815
     32 H8         -0.7766    3.6014   -2.1076 H         1 <0>         0.1437
     33 H9          1.3625    2.3971   -2.0691 H         1 <0>         0.1441
     34 H10         0.7266    1.3135    2.0146 H         1 <0>         0.1626
     35 H11         2.4751    3.7337   -0.0199 H         1 <0>         0.1867
     36 H12         4.5223    5.0743   -0.2193 H         1 <0>         0.1641
     37 H13         4.7622    0.1318   -0.2452 H         1 <0>         0.1744
     38 H14         9.7113    0.9105    0.3542 H         1 <0>         0.0798
     39 H15        11.1411    1.9695    0.3059 H         1 <0>         0.1397
     40 H16         9.7762    2.3653    1.3776 H         1 <0>         0.1073
     41 H17         9.5047    1.2876   -2.0957 H         1 <0>         0.2234
     42 H18        -5.1663    3.9500    0.6049 H         1 <0>         0.2134
     43 N4          7.1988    1.6375   -0.4926 N.pl3     1 <0>        -0.1082
     44 H19         7.5697    0.6809   -0.5317 H         1 <0>         0.3101
@<TRIPOS>BOND
     1    1    2 1
     2    1   29 1
     3    1   30 1
     4    1   31 1
     5    2    3 1
     6    2    4 1
     7    2   28 1
     8    4   13 2
     9    4    5 1
    10    5    6 1
    11    5    7 1
    12    7   12 ar
    13    7    8 ar
    14    8    9 ar
    15    8   32 1
    16    9   10 ar
    17    9   33 1
    18   10   11 ar
    19   10   14 1
    20   11   12 ar
    21   11   34 1
    22   12   13 1
    23   14   15 1
    24   15   20 ar
    25   15   16 ar
    26   16   17 ar
    27   16   35 1
    28   17   18 ar
    29   17   36 1
    30   18   22 1
    31   18   19 ar
    32   19   20 ar
    33   19   43 1
    34   20   37 1
    35   21   22 1
    36   21   24 1
    37   21   43 2
    38   22   23 1
    39   24   25 1
    40   24   26 1
    41   24   27 1
    42   26   38 1
    43   26   39 1
    44   26   40 1
    45   27   41 1
    46   28   42 1
    47   43   44 1
@<TRIPOS>MOLECULE
ZINC00800928
   46    49     0     0     0
SMALL
USER_CHARGES

@<TRIPOS>ATOM
      1 C1          3.4861    3.2856    0.0034 C.3       1 <0>        -0.0650
      2 O1          2.2651    4.0245    0.0751 O.3       1 <0>        -0.1990
      3 C2          1.1080    3.3143   -0.0052 C.ar      1 <0>         0.0810
      4 C3          1.1474    1.9368   -0.1498 C.ar      1 <0>        -0.2138
      5 C4         -0.0297    1.2165   -0.2317 C.ar      1 <0>        -0.0973
      6 C5         -1.2477    1.8681   -0.1754 C.ar      1 <0>        -0.1392
      7 C6         -1.2941    3.2416   -0.0255 C.ar      1 <0>        -0.0513
      8 C7         -0.1180    3.9695    0.0572 C.ar      1 <0>         0.0459
      9 O2         -0.1618    5.3214    0.1987 O.3       1 <0>        -0.2245
     10 C8         -0.1763    6.0990   -1.0001 C.3       1 <0>        -0.0639
     11 C9         -2.6237    3.9477    0.0418 C.3       1 <0>         0.0947
     12 H1         -2.4653    5.0180    0.1740 H         1 <0>         0.1260
     13 C10        -3.4295    3.4059    1.1940 C.2       1 <0>        -0.2537
     14 C11        -3.2478    3.5957    2.5672 C.2       1 <0>         0.0086
     15 N1         -4.1940    2.9267    3.1982 N.2       1 <0>        -0.0570
     16 N2         -5.0023    2.2954    2.2407 N.pl3     1 <0>        -0.1741
     17 H2         -5.7976    1.7196    2.4303 H         1 <0>         0.2874
     18 C12        -4.5180    2.6017    1.0192 C.2       1 <0>         0.1010
     19 O3         -4.9629    2.2276   -0.2065 O.3       1 <0>        -0.1369
     20 C13        -4.4742    2.8871   -1.2764 C.2       1 <0>         0.2735
     21 C14        -3.3961    3.7009   -1.2302 C.2       1 <0>        -0.2610
     22 C15        -2.9718    4.3529   -2.4324 C.1       1 <0>        -0.0604
     23 N3         -2.6353    4.8701   -3.3862 N.1       1 <0>        -0.0802
     24 N4         -5.1087    2.7226   -2.4825 N.pl3     1 <0>        -0.3892
     25 C16        -2.1791    4.4060    3.2028 C.ar      1 <0>        -0.0199
     26 C17        -1.5187    3.9290    4.3331 C.ar      1 <0>        -0.0976
     27 C18        -0.5224    4.6846    4.9174 C.ar      1 <0>        -0.1361
     28 C19        -0.1864    5.9180    4.3891 C.ar      1 <0>        -0.1163
     29 C20        -0.8424    6.3987    3.2702 C.ar      1 <0>        -0.1192
     30 C21        -1.8367    5.6490    2.6749 C.ar      1 <0>        -0.0857
     31 H3          4.3304    3.9707    0.0796 H         1 <0>         0.1077
     32 H4          3.5253    2.5681    0.8231 H         1 <0>         0.0682
     33 H5          3.5339    2.7542   -0.9471 H         1 <0>         0.0655
     34 H6          2.0977    1.4259   -0.1981 H         1 <0>         0.1356
     35 H7          0.0024    0.1429   -0.3444 H         1 <0>         0.1293
     36 H8         -2.1651    1.3023   -0.2446 H         1 <0>         0.1318
     37 H9         -1.0536    5.8378   -1.5920 H         1 <0>         0.0638
     38 H10        -0.2119    7.1583   -0.7457 H         1 <0>         0.0987
     39 H11         0.7255    5.8940   -1.5771 H         1 <0>         0.0697
     40 H12        -4.7807    3.1841   -3.2701 H         1 <0>         0.2610
     41 H13        -5.8852    2.1448   -2.5472 H         1 <0>         0.2288
     42 H14        -1.7834    2.9681    4.7490 H         1 <0>         0.1379
     43 H15        -0.0070    4.3140    5.7911 H         1 <0>         0.1289
     44 H16         0.5907    6.5080    4.8521 H         1 <0>         0.1273
     45 H17        -0.5764    7.3625    2.8620 H         1 <0>         0.1323
     46 H18        -2.3485    6.0255    1.8015 H         1 <0>         0.1366
@<TRIPOS>BOND
     1    1    2 1
     2    1   31 1
     3    1   32 1
     4    1   33 1
     5    2    3 1
     6    3    8 ar
     7    3    4 ar
     8    4    5 ar
     9    4   34 1
    10    5    6 ar
    11    5   35 1
    12    6    7 ar
    13    6   36 1
    14    7    8 ar
    15    7   11 1
    16    8    9 1
    17    9   10 1
    18   10   37 1
    19   10   38 1
    20   10   39 1
    21   11   12 1
    22   11   21 1
    23   11   13 1
    24   13   18 2
    25   13   14 1
    26   14   15 2
    27   14   25 1
    28   15   16 1
    29   16   17 1
    30   16   18 1
    31   18   19 1
    32   19   20 1
    33   20   21 2
    34   20   24 1
    35   21   22 1
    36   22   23 3
    37   24   40 1
    38   24   41 1
    39   25   30 ar
    40   25   26 ar
    41   26   27 ar
    42   26   42 1
    43   27   28 ar
    44   27   43 1
    45   28   29 ar
    46   28   44 1
    47   29   30 ar
    48   29   45 1
    49   30   46 1
@<TRIPOS>MOLECULE
ZINC00800928
   46    49     0     0     0
SMALL
USER_CHARGES

@<TRIPOS>ATOM
      1 C1          3.4862    3.2837    0.0030 C.3       1 <0>        -0.0649
      2 O1          2.2654    4.0229    0.0748 O.3       1 <0>        -0.2003
      3 C2          1.1081    3.3130   -0.0055 C.ar      1 <0>         0.0796
      4 C3          1.1472    1.9355   -0.1502 C.ar      1 <0>        -0.2150
      5 C4         -0.0301    1.2155   -0.2321 C.ar      1 <0>        -0.0974
      6 C5         -1.2480    1.8674   -0.1757 C.ar      1 <0>        -0.1378
      7 C6         -1.2940    3.2409   -0.0256 C.ar      1 <0>        -0.0506
      8 C7         -0.1177    3.9685    0.0571 C.ar      1 <0>         0.0420
      9 O2         -0.1612    5.3204    0.1987 O.3       1 <0>        -0.2282
     10 C8         -0.1756    6.0981   -1.0000 C.3       1 <0>        -0.0643
     11 C9         -2.6234    3.9473    0.0418 C.3       1 <0>         0.0969
     12 H1         -2.4647    5.0176    0.1741 H         1 <0>         0.1204
     13 C10        -3.4293    3.4056    1.1940 C.2       1 <0>        -0.2697
     14 C11        -3.2475    3.5952    2.5672 C.2       1 <0>         0.0448
     15 N1         -4.1943    2.9271    3.1982 N.pl3     1 <0>        -0.1340
     16 N2         -5.0028    2.2961    2.2407 N.2       1 <0>        -0.0968
     17 H2         -4.3151    2.8787    4.1897 H         1 <0>         0.2925
     18 C12        -4.5183    2.6021    1.0192 C.2       1 <0>         0.0800
     19 O3         -4.9633    2.2281   -0.2065 O.3       1 <0>        -0.1058
     20 C13        -4.4743    2.8876   -1.2764 C.2       1 <0>         0.2765
     21 C14        -3.3957    3.7007   -1.2302 C.2       1 <0>        -0.2743
     22 C15        -2.9710    4.3525   -2.4323 C.1       1 <0>        -0.0579
     23 N3         -2.6342    4.8695   -3.3861 N.1       1 <0>        -0.0870
     24 N4         -5.1090    2.7235   -2.4825 N.pl3     1 <0>        -0.3870
     25 C16        -2.1785    4.4052    3.2028 C.ar      1 <0>        -0.0504
     26 C17        -1.5182    3.9279    4.3330 C.ar      1 <0>        -0.1166
     27 C18        -0.5216    4.6832    4.9174 C.ar      1 <0>        -0.1298
     28 C19        -0.1854    5.9166    4.3892 C.ar      1 <0>        -0.1118
     29 C20        -0.8413    6.3976    3.2703 C.ar      1 <0>        -0.1142
     30 C21        -1.8358    5.6482    2.6750 C.ar      1 <0>        -0.0752
     31 H3          4.3307    3.9686    0.0792 H         1 <0>         0.1072
     32 H4          3.5253    2.5661    0.8226 H         1 <0>         0.0674
     33 H5          3.5338    2.7524   -0.9476 H         1 <0>         0.0664
     34 H6          2.0973    1.4244   -0.1986 H         1 <0>         0.1352
     35 H7          0.0017    0.1419   -0.3449 H         1 <0>         0.1302
     36 H8         -2.1655    1.3018   -0.2449 H         1 <0>         0.1364
     37 H9         -1.0530    5.8372   -1.5919 H         1 <0>         0.0663
     38 H10        -0.2109    7.1574   -0.7455 H         1 <0>         0.0972
     39 H11         0.7262    5.8929   -1.5771 H         1 <0>         0.0703
     40 H12        -4.7807    3.1849   -3.2701 H         1 <0>         0.2590
     41 H13        -5.8858    2.1462   -2.5472 H         1 <0>         0.2309
     42 H14        -1.7831    2.9670    4.7489 H         1 <0>         0.1262
     43 H15        -0.0063    4.3124    5.7910 H         1 <0>         0.1315
     44 H16         0.5919    6.5063    4.8522 H         1 <0>         0.1314
     45 H17        -0.5751    7.3613    2.8622 H         1 <0>         0.1370
     46 H18        -2.3476    6.0249    1.8017 H         1 <0>         0.1437
@<TRIPOS>BOND
     1    1    2 1
     2    1   31 1
     3    1   32 1
     4    1   33 1
     5    2    3 1
     6    3    8 ar
     7    3    4 ar
     8    4    5 ar
     9    4   34 1
    10    5    6 ar
    11    5   35 1
    12    6    7 ar
    13    6   36 1
    14    7    8 ar
    15    7   11 1
    16    8    9 1
    17    9   10 1
    18   10   37 1
    19   10   38 1
    20   10   39 1
    21   11   12 1
    22   11   21 1
    23   11   13 1
    24   13   18 1
    25   13   14 2
    26   14   25 1
    27   14   15 1
    28   15   17 1
    29   15   16 1
    30   16   18 2
    31   18   19 1
    32   19   20 1
    33   20   21 2
    34   20   24 1
    35   21   22 1
    36   22   23 3
    37   24   40 1
    38   24   41 1
    39   25   30 ar
    40   25   26 ar
    41   26   27 ar
    42   26   42 1
    43   27   28 ar
    44   27   43 1
    45   28   29 ar
    46   28   44 1
    47   29   30 ar
    48   29   45 1
    49   30   46 1
@<TRIPOS>MOLECULE
ZINC00801751
   43    46     0     0     0
SMALL
USER_CHARGES

@<TRIPOS>ATOM
      1 C1         -0.6511   -2.3078   -0.0033 C.ar      1 <0>        -0.1130
      2 C2          0.6802   -2.6862   -0.0181 C.ar      1 <0>        -0.1232
      3 C3          1.6767   -1.7299   -0.0228 C.ar      1 <0>        -0.0931
      4 C4          1.3438   -0.3844   -0.0128 C.ar      1 <0>         0.0163
      5 C5          0.0021   -0.0041    0.0020 C.ar      1 <0>        -0.0130
      6 C6         -0.9926   -0.9694    0.0067 C.ar      1 <0>        -0.1175
      7 N1         -0.0168    1.3904    0.0097 N.am      1 <0>        -0.2721
      8 C7          1.2630    1.8129   -0.0003 C.2       1 <0>         0.4041
      9 O1          1.6186    2.9757    0.0022 O.2       1 <0>        -0.3251
     10 O2          2.0841    0.7512   -0.0138 O.3       1 <0>        -0.1233
     11 C8         -1.2098    2.2406    0.0202 C.3       1 <0>         0.0005
     12 C9         -1.6119    2.5244    1.4446 C.2       1 <0>         0.2705
     13 O3         -0.9655    2.0620    2.3607 O.2       1 <0>        -0.3136
     14 N2         -2.6897    3.2921    1.7004 N.am      1 <0>        -0.2700
     15 C10        -3.0596    3.5532    3.0110 C.2       1 <0>        -0.1454
     16 C11        -4.1229    4.3171    3.4709 C.2       1 <0>        -0.2358
     17 C12        -4.2952    4.4313    4.9091 C.2       1 <0>        -0.0650
     18 C13        -3.3771    3.7762    5.6523 C.2       1 <0>        -0.3236
     19 S1         -2.3020    3.0112    4.4719 S.3       1 <0>         0.5165
     20 C14        -3.2984    3.7194    7.1467 C.3       1 <0>        -0.0737
     21 C15        -4.1973    4.8242    7.7207 C.3       1 <0>        -0.1565
     22 C16        -5.5577    4.7672    7.0198 C.3       1 <0>        -0.1580
     23 C17        -5.4146    5.2279    5.5681 C.3       1 <0>        -0.1026
     24 C18        -5.0409    4.9810    2.5401 C.2       1 <0>         0.3606
     25 O4         -6.0379    4.4013    2.1513 O.2       1 <0>        -0.3641
     26 N3         -4.7806    6.2332    2.1151 N.am      1 <0>        -0.4286
     27 H1         -1.4251   -3.0610    0.0003 H         1 <0>         0.1415
     28 H2          0.9409   -3.7342   -0.0262 H         1 <0>         0.1434
     29 H3          2.7141   -2.0301   -0.0340 H         1 <0>         0.1491
     30 H4         -2.0319   -0.6759    0.0186 H         1 <0>         0.1361
     31 H5         -0.9917    3.1790   -0.4896 H         1 <0>         0.1380
     32 H6         -2.0248    1.7295   -0.4924 H         1 <0>         0.1211
     33 H7         -3.2067    3.6619    0.9677 H         1 <0>         0.2460
     34 H8         -3.6440    2.7464    7.4959 H         1 <0>         0.0967
     35 H9         -2.2688    3.8797    7.4666 H         1 <0>         0.0933
     36 H10        -4.3309    4.6672    8.7911 H         1 <0>         0.0844
     37 H11        -3.7359    5.7967    7.5489 H         1 <0>         0.0870
     38 H12        -5.9327    3.7440    7.0397 H         1 <0>         0.0910
     39 H13        -6.2597    5.4204    7.5381 H         1 <0>         0.0824
     40 H14        -6.3495    5.0536    5.0356 H         1 <0>         0.1031
     41 H15        -5.1729    6.2905    5.5441 H         1 <0>         0.0887
     42 H16        -3.9860    6.6952    2.4249 H         1 <0>         0.2209
     43 H17        -5.3879    6.6724    1.4993 H         1 <0>         0.2263
@<TRIPOS>BOND
     1    1    6 ar
     2    1    2 ar
     3    1   27 1
     4    2    3 ar
     5    2   28 1
     6    3    4 ar
     7    3   29 1
     8    4   10 1
     9    4    5 ar
    10    5    6 ar
    11    5    7 1
    12    6   30 1
    13    7    8 am
    14    7   11 1
    15    8    9 2
    16    8   10 1
    17   11   12 1
    18   11   31 1
    19   11   32 1
    20   12   13 2
    21   12   14 am
    22   14   15 1
    23   14   33 1
    24   15   19 1
    25   15   16 2
    26   16   17 1
    27   16   24 1
    28   17   23 1
    29   17   18 2
    30   18   19 1
    31   18   20 1
    32   20   21 1
    33   20   34 1
    34   20   35 1
    35   21   22 1
    36   21   36 1
    37   21   37 1
    38   22   23 1
    39   22   38 1
    40   22   39 1
    41   23   40 1
    42   23   41 1
    43   24   25 2
    44   24   26 am
    45   26   42 1
    46   26   43 1
@<TRIPOS>MOLECULE
ZINC00803011
   39    41     0     0     0
SMALL
USER_CHARGES

@<TRIPOS>ATOM
      1 C1          0.7797    2.6171    3.2069 C.3       1 <0>        -0.8260
      2 S1         -0.3270    1.2529    2.7544 S.o2      1 <0>         2.6871
      3 O1         -1.5426    1.3461    3.4843 O.2       1 <0>        -0.8972
      4 O2          0.3968    0.0311    2.7055 O.2       1 <0>        -0.8930
      5 N1         -0.7536    1.5545    1.1829 N.pl3     1 <0>        -0.7580
      6 C2         -0.0255    1.0670    0.0088 C.3       1 <0>        -0.0033
      7 C3         -0.8034    1.6054   -1.2032 C.3       1 <0>        -0.1216
      8 C4         -1.9523    2.3821   -0.5994 C.ar      1 <0>        -0.1377
      9 C5         -1.8559    2.3058    0.7850 C.ar      1 <0>         0.1020
     10 C6         -2.8149    2.9520    1.5738 C.ar      1 <0>        -0.1722
     11 C7         -3.8405    3.6536    0.9886 C.ar      1 <0>        -0.0716
     12 C8         -3.9335    3.7277   -0.4042 C.ar      1 <0>        -0.1608
     13 C9         -2.9767    3.0834   -1.1937 C.ar      1 <0>        -0.0223
     14 C10        -5.0332    4.4806   -1.0361 C.2       1 <0>         0.3549
     15 O3         -5.1099    4.5423   -2.2483 O.2       1 <0>        -0.3593
     16 N2         -5.9529    5.1003   -0.2703 N.am      1 <0>        -0.3245
     17 C11        -6.9400    5.8949   -0.8664 C.ar      1 <0>         0.0521
     18 C12        -7.3949    7.0376   -0.2219 C.ar      1 <0>        -0.1491
     19 C13        -8.3645    7.8235   -0.8128 C.ar      1 <0>        -0.1382
     20 C14        -8.8920    7.4657   -2.0449 C.ar      1 <0>         0.0536
     21 C15        -8.4418    6.3213   -2.6870 C.ar      1 <0>        -0.1377
     22 C16        -7.4685    5.5373   -2.0998 C.ar      1 <0>        -0.1131
     23 O4         -9.8504    8.2372   -2.6238 O.3       1 <0>        -0.2909
     24 H1          0.2487    3.5639    3.1078 H         1 <0>         0.1393
     25 H2          1.1086    2.4912    4.2385 H         1 <0>         0.1450
     26 H3          1.6468    2.6159    2.5464 H         1 <0>         0.1373
     27 H4         -0.0139   -0.0229   -0.0032 H         1 <0>         0.1112
     28 H5          0.9929    1.4554    0.0074 H         1 <0>         0.0853
     29 H6         -0.1711    2.2631   -1.7997 H         1 <0>         0.1028
     30 H7         -1.1783    0.7821   -1.8112 H         1 <0>         0.1082
     31 H8         -2.7482    2.8982    2.6504 H         1 <0>         0.1662
     32 H9         -4.5762    4.1484    1.6053 H         1 <0>         0.1306
     33 H10        -3.0414    3.1358   -2.2705 H         1 <0>         0.1597
     34 H11        -5.9311    4.9959    0.6938 H         1 <0>         0.2331
     35 H12        -6.9878    7.3138    0.7396 H         1 <0>         0.1309
     36 H13        -8.7152    8.7147   -0.3137 H         1 <0>         0.1404
     37 H14        -8.8529    6.0434   -3.6463 H         1 <0>         0.1439
     38 H15        -7.1181    4.6465   -2.5998 H         1 <0>         0.1689
     39 H16       -10.7536    7.9867   -2.3860 H         1 <0>         0.2238
@<TRIPOS>BOND
     1    1    2 1
     2    1   24 1
     3    1   25 1
     4    1   26 1
     5    2    3 2
     6    2    4 2
     7    2    5 1
     8    5    9 1
     9    5    6 1
    10    6    7 1
    11    6   27 1
    12    6   28 1
    13    7    8 1
    14    7   29 1
    15    7   30 1
    16    8   13 ar
    17    8    9 ar
    18    9   10 ar
    19   10   11 ar
    20   10   31 1
    21   11   12 ar
    22   11   32 1
    23   12   13 ar
    24   12   14 1
    25   13   33 1
    26   14   15 2
    27   14   16 am
    28   16   17 1
    29   16   34 1
    30   17   22 ar
    31   17   18 ar
    32   18   19 ar
    33   18   35 1
    34   19   20 ar
    35   19   36 1
    36   20   21 ar
    37   20   23 1
    38   21   22 ar
    39   21   37 1
    40   22   38 1
    41   23   39 1
@<TRIPOS>MOLECULE
ZINC00803803
   42    45     0     0     0
SMALL
USER_CHARGES

@<TRIPOS>ATOM
      1 C1         -6.4987   -4.8807   -1.0870 C.3       1 <0>        -0.1744
      2 C2         -5.3019   -3.9777   -1.2391 C.ar      1 <0>        -0.0806
      3 C3         -4.8587   -3.6265   -2.5012 C.ar      1 <0>        -0.1122
      4 C4         -3.7621   -2.7996   -2.6444 C.ar      1 <0>        -0.1058
      5 C5         -3.1039   -2.3199   -1.5184 C.ar      1 <0>        -0.1993
      6 C6         -3.5489   -2.6791   -0.2518 C.ar      1 <0>        -0.1485
      7 C7         -4.6491   -3.5025   -0.1162 C.ar      1 <0>        -0.1098
      8 S1         -1.7042   -1.2645   -1.6962 S.3       1 <0>         0.1904
      9 C8         -1.2021   -0.9101    0.0105 C.3       1 <0>        -0.2121
     10 C9          0.0021   -0.0041    0.0020 C.2       1 <0>         0.0104
     11 C10        -0.0161    1.3373    0.0094 C.2       1 <0>        -0.2521
     12 C11         1.3200    1.7945   -0.0009 C.2       1 <0>         0.0704
     13 N1          2.1014    0.7538   -0.0157 N.2       1 <0>        -0.0528
     14 N2          1.2969   -0.3967   -0.0139 N.pl3     1 <0>        -0.1813
     15 H1          1.6238   -1.3417   -0.0228 H         1 <0>         0.2946
     16 O1          1.6292    3.1189    0.0063 O.3       1 <0>        -0.1058
     17 C12         0.6382    3.9861    0.2938 C.2       1 <0>         0.2697
     18 C13        -0.6729    3.6681    0.3215 C.2       1 <0>        -0.2670
     19 C14        -1.1897    2.2833    0.0201 C.3       1 <0>         0.1260
     20 H2         -1.8994    1.9804    0.7900 H         1 <0>         0.1087
     21 C15        -1.8644    2.2721   -1.3274 C.2       1 <0>        -0.1703
     22 C16        -3.2044    1.9099   -1.5958 C.2       1 <0>        -0.2044
     23 C17        -3.3870    2.0465   -2.9214 C.2       1 <0>        -0.0995
     24 O2         -2.2324    2.4608   -3.4684 O.3       1 <0>        -0.0545
     25 C18        -1.3055    2.5992   -2.5064 C.2       1 <0>        -0.0780
     26 C19        -1.6173    4.6938    0.6482 C.1       1 <0>        -0.0606
     27 N3         -2.3665    5.5074    0.9073 N.1       1 <0>        -0.0784
     28 N4          0.9870    5.2829    0.5778 N.pl3     1 <0>        -0.3879
     29 H3         -6.1693   -5.9194   -1.0617 H         1 <0>         0.0873
     30 H4         -7.0186   -4.6417   -0.1592 H         1 <0>         0.0824
     31 H5         -7.1740   -4.7340   -1.9299 H         1 <0>         0.0831
     32 H6         -5.3707   -3.9997   -3.3758 H         1 <0>         0.1351
     33 H7         -3.4161   -2.5264   -3.6303 H         1 <0>         0.1415
     34 H8         -3.0371   -2.3118    0.6255 H         1 <0>         0.1266
     35 H9         -4.9978   -3.7791    0.8679 H         1 <0>         0.1325
     36 H10        -0.9518   -1.8424    0.5166 H         1 <0>         0.1078
     37 H11        -2.0218   -0.4201    0.5361 H         1 <0>         0.1301
     38 H12        -3.9410    1.5881   -0.8744 H         1 <0>         0.1528
     39 H13        -4.3048    1.8509   -3.4561 H         1 <0>         0.1959
     40 H14        -0.2845    2.9185   -2.6544 H         1 <0>         0.1992
     41 H15         1.9201    5.5477    0.5670 H         1 <0>         0.2306
     42 H16         0.3003    5.9346    0.7892 H         1 <0>         0.2602
@<TRIPOS>BOND
     1    1    2 1
     2    1   29 1
     3    1   30 1
     4    1   31 1
     5    2    7 ar
     6    2    3 ar
     7    3    4 ar
     8    3   32 1
     9    4    5 ar
    10    4   33 1
    11    5    6 ar
    12    5    8 1
    13    6    7 ar
    14    6   34 1
    15    7   35 1
    16    8    9 1
    17    9   10 1
    18    9   36 1
    19    9   37 1
    20   10   14 1
    21   10   11 2
    22   11   19 1
    23   11   12 1
    24   12   13 2
    25   12   16 1
    26   13   14 1
    27   14   15 1
    28   16   17 1
    29   17   18 2
    30   17   28 1
    31   18   19 1
    32   18   26 1
    33   19   20 1
    34   19   21 1
    35   21   25 2
    36   21   22 1
    37   22   23 2
    38   22   38 1
    39   23   24 1
    40   23   39 1
    41   24   25 1
    42   25   40 1
    43   26   27 3
    44   28   41 1
    45   28   42 1
@<TRIPOS>MOLECULE
ZINC00803803
   42    45     0     0     0
SMALL
USER_CHARGES

@<TRIPOS>ATOM
      1 C1         -6.4970   -4.8854   -1.0703 C.3       1 <0>        -0.1735
      2 C2         -5.3000   -3.9830   -1.2245 C.ar      1 <0>        -0.0844
      3 C3         -4.8550   -3.6371   -2.4874 C.ar      1 <0>        -0.1129
      4 C4         -3.7582   -2.8107   -2.6325 C.ar      1 <0>        -0.1086
      5 C5         -3.1016   -2.3263   -1.5076 C.ar      1 <0>        -0.1960
      6 C6         -3.5484   -2.6803   -0.2401 C.ar      1 <0>        -0.1487
      7 C7         -4.6488   -3.5031   -0.1027 C.ar      1 <0>        -0.1101
      8 S1         -1.7017   -1.2716   -1.6878 S.3       1 <0>         0.1926
      9 C8         -1.2020   -0.9101    0.0182 C.3       1 <0>        -0.1889
     10 C9          0.0022   -0.0041    0.0076 C.2       1 <0>        -0.0230
     11 C10        -0.0161    1.3373    0.0088 C.2       1 <0>        -0.2554
     12 C11         1.3200    1.7945   -0.0018 C.2       1 <0>         0.0890
     13 N1          2.1015    0.7538   -0.0103 N.pl3     1 <0>        -0.1167
     14 N2          1.2970   -0.3967   -0.0048 N.2       1 <0>        -0.0886
     15 H1          3.1013    0.7707   -0.0191 H         1 <0>         0.2892
     16 O1          1.6292    3.1189    0.0048 O.3       1 <0>        -0.1393
     17 C12         0.6382    3.9862    0.2920 C.2       1 <0>         0.2656
     18 C13        -0.6729    3.6682    0.3200 C.2       1 <0>        -0.2511
     19 C14        -1.1897    2.2833    0.0193 C.3       1 <0>         0.1250
     20 H2         -1.8993    1.9807    0.7894 H         1 <0>         0.1117
     21 C15        -1.8646    2.2715   -1.3281 C.2       1 <0>        -0.1680
     22 C16        -3.2046    1.9092   -1.5962 C.2       1 <0>        -0.2024
     23 C17        -3.3874    2.0452   -2.9218 C.2       1 <0>        -0.0984
     24 O2         -2.2329    2.4593   -3.4692 O.3       1 <0>        -0.0548
     25 C18        -1.3058    2.5981   -2.5073 C.2       1 <0>        -0.0807
     26 C19        -1.6172    4.6941    0.6464 C.1       1 <0>        -0.0630
     27 N3         -2.3664    5.5078    0.9053 N.1       1 <0>        -0.0725
     28 N4          0.9871    5.2831    0.5754 N.pl3     1 <0>        -0.3909
     29 H3         -6.1676   -5.9240   -1.0403 H         1 <0>         0.0863
     30 H4         -7.0182   -4.6426   -0.1443 H         1 <0>         0.0810
     31 H5         -7.1711   -4.7423   -1.9148 H         1 <0>         0.0814
     32 H6         -5.3657   -4.0139   -3.3612 H         1 <0>         0.1330
     33 H7         -3.4108   -2.5416   -3.6190 H         1 <0>         0.1401
     34 H8         -3.0379   -2.3093    0.6364 H         1 <0>         0.1284
     35 H9         -4.9989   -3.7757    0.8821 H         1 <0>         0.1309
     36 H10        -0.9524   -1.8403    0.5285 H         1 <0>         0.1202
     37 H11        -2.0225   -0.4180    0.5406 H         1 <0>         0.1177
     38 H12        -3.9411    1.5877   -0.8746 H         1 <0>         0.1539
     39 H13        -4.3053    1.8494   -3.4563 H         1 <0>         0.1964
     40 H14        -0.2849    2.9174   -2.6556 H         1 <0>         0.1952
     41 H15         1.9201    5.5479    0.5644 H         1 <0>         0.2281
     42 H16         0.3004    5.9349    0.7866 H         1 <0>         0.2619
@<TRIPOS>BOND
     1    1    2 1
     2    1   29 1
     3    1   30 1
     4    1   31 1
     5    2    7 ar
     6    2    3 ar
     7    3    4 ar
     8    3   32 1
     9    4    5 ar
    10    4   33 1
    11    5    6 ar
    12    5    8 1
    13    6    7 ar
    14    6   34 1
    15    7   35 1
    16    8    9 1
    17    9   10 1
    18    9   36 1
    19    9   37 1
    20   10   11 1
    21   10   14 2
    22   11   19 1
    23   11   12 2
    24   12   16 1
    25   12   13 1
    26   13   15 1
    27   13   14 1
    28   16   17 1
    29   17   18 2
    30   17   28 1
    31   18   19 1
    32   18   26 1
    33   19   20 1
    34   19   21 1
    35   21   25 2
    36   21   22 1
    37   22   23 2
    38   22   38 1
    39   23   24 1
    40   23   39 1
    41   24   25 1
    42   25   40 1
    43   26   27 3
    44   28   41 1
    45   28   42 1
@<TRIPOS>MOLECULE
ZINC00804199
   45    48     0     0     0
SMALL
USER_CHARGES

@<TRIPOS>ATOM
      1 C1         -3.6150    3.0040    0.0519 C.3       1 <0>        -0.0632
      2 O1         -2.4272    3.7985    0.0443 O.3       1 <0>        -0.1970
      3 C2         -1.2404    3.1346    0.0298 C.ar      1 <0>         0.0703
      4 C3         -1.2199    1.7491    0.0173 C.ar      1 <0>        -0.1914
      5 C4         -0.0126    1.0758    0.0080 C.ar      1 <0>        -0.1182
      6 C5          1.1761    1.7818    0.0004 C.ar      1 <0>        -0.0699
      7 C6          1.1626    3.1641    0.0070 C.ar      1 <0>        -0.1599
      8 C7         -0.0440    3.8452    0.0218 C.ar      1 <0>         0.0711
      9 O2         -0.0590    5.2050    0.0278 O.3       1 <0>        -0.1985
     10 C8          1.2070    5.8678    0.0184 C.3       1 <0>        -0.0661
     11 C9          2.4894    1.0428   -0.0156 C.3       1 <0>         0.0837
     12 H1          3.3083    1.7620   -0.0196 H         1 <0>         0.1274
     13 C10         2.5904    0.1787    1.2135 C.2       1 <0>        -0.2225
     14 C11         2.3915   -1.1667    1.1328 C.2       1 <0>         0.1541
     15 C12         2.5007   -1.9674    2.3607 C.ar      1 <0>        -0.1107
     16 C13         2.3089   -3.3509    2.3413 C.ar      1 <0>        -0.0583
     17 C14         2.4151   -4.0659    3.5013 C.ar      1 <0>        -0.1664
     18 C15         2.7119   -3.4291    4.6982 C.ar      1 <0>        -0.0687
     19 C16         2.9060   -2.0650    4.7394 C.ar      1 <0>        -0.1827
     20 C17         2.8031   -1.3184    3.5704 C.ar      1 <0>         0.1126
     21 N1          2.9926    0.0481    3.5804 N.am      1 <0>        -0.2843
     22 H2          3.2080    0.5081    4.4418 H         1 <0>         0.2575
     23 C18         2.8927    0.7713    2.4530 C.2       1 <0>         0.3553
     24 O3          3.0688    1.9770    2.5055 O.2       1 <0>        -0.3592
     25 O4          2.1010   -1.7667   -0.0384 O.3       1 <0>        -0.1456
     26 C19         2.3727   -1.1437   -1.1989 C.2       1 <0>         0.2575
     27 C20         2.5672    0.1927   -1.2528 C.2       1 <0>        -0.2530
     28 C21         2.8527    0.8081   -2.5140 C.1       1 <0>        -0.0618
     29 N2          3.0791    1.2963   -3.5144 N.1       1 <0>        -0.0713
     30 N3          2.4526   -1.8817   -2.3534 N.pl3     1 <0>        -0.3866
     31 H3         -4.4883    3.6561    0.0633 H         1 <0>         0.1067
     32 H4         -3.6398    2.3790   -0.8409 H         1 <0>         0.0645
     33 H5         -3.6228    2.3707    0.9390 H         1 <0>         0.0640
     34 H6         -2.1471    1.1953    0.0191 H         1 <0>         0.1364
     35 H7          0.0021   -0.0041    0.0020 H         1 <0>         0.1265
     36 H8          2.0926    3.7132    0.0011 H         1 <0>         0.1485
     37 H9          1.7758    5.5772    0.9017 H         1 <0>         0.0721
     38 H10         1.7585    5.5850   -0.8782 H         1 <0>         0.0668
     39 H11         1.0523    6.9467    0.0247 H         1 <0>         0.1058
     40 H12         2.0779   -3.8535    1.4136 H         1 <0>         0.1465
     41 H13         2.2672   -5.1356    3.4864 H         1 <0>         0.1384
     42 H14         2.7920   -4.0081    5.6063 H         1 <0>         0.1384
     43 H15         3.1373   -1.5782    5.6753 H         1 <0>         0.1424
     44 H16         2.3136   -2.8413   -2.3262 H         1 <0>         0.2282
     45 H17         2.6479   -1.4437   -3.1965 H         1 <0>         0.2607
@<TRIPOS>BOND
     1    1    2 1
     2    1   31 1
     3    1   32 1
     4    1   33 1
     5    2    3 1
     6    3    8 ar
     7    3    4 ar
     8    4    5 ar
     9    4   34 1
    10    5    6 ar
    11    5   35 1
    12    6    7 ar
    13    6   11 1
    14    7    8 ar
    15    7   36 1
    16    8    9 1
    17    9   10 1
    18   10   37 1
    19   10   38 1
    20   10   39 1
    21   11   12 1
    22   11   27 1
    23   11   13 1
    24   13   23 1
    25   13   14 2
    26   14   15 1
    27   14   25 1
    28   15   20 ar
    29   15   16 ar
    30   16   17 ar
    31   16   40 1
    32   17   18 ar
    33   17   41 1
    34   18   19 ar
    35   18   42 1
    36   19   20 ar
    37   19   43 1
    38   20   21 1
    39   21   22 1
    40   21   23 am
    41   23   24 2
    42   25   26 1
    43   26   27 2
    44   26   30 1
    45   27   28 1
    46   28   29 3
    47   30   44 1
    48   30   45 1
@<TRIPOS>MOLECULE
ZINC00804199
   45    48     0     0     0
SMALL
USER_CHARGES

@<TRIPOS>ATOM
      1 C1         -3.6141    3.0009    0.0452 C.3       1 <0>        -0.0648
      2 O1         -2.4267    3.7959    0.0388 O.3       1 <0>        -0.1941
      3 C2         -1.2395    3.1326    0.0255 C.ar      1 <0>         0.0784
      4 C3         -1.2184    1.7471    0.0131 C.ar      1 <0>        -0.1847
      5 C4         -0.0108    1.0744    0.0051 C.ar      1 <0>        -0.1001
      6 C5          1.1776    1.7809   -0.0013 C.ar      1 <0>        -0.0975
      7 C6          1.1635    3.1632    0.0052 C.ar      1 <0>        -0.1957
      8 C7         -0.0435    3.8438    0.0187 C.ar      1 <0>         0.0806
      9 O2         -0.0591    5.2036    0.0246 O.3       1 <0>        -0.1928
     10 C8          1.2066    5.8669    0.0165 C.3       1 <0>        -0.0654
     11 C9          2.4913    1.0425   -0.0159 C.3       1 <0>         0.0645
     12 H1          3.3098    1.7621   -0.0191 H         1 <0>         0.0976
     13 C10         2.5914    0.1786    1.2133 C.ar      1 <0>        -0.3115
     14 C11         2.3935   -1.1670    1.1324 C.ar      1 <0>         0.1793
     15 C12         2.5021   -1.9676    2.3604 C.ar      1 <0>        -0.1322
     16 C13         2.3106   -3.3511    2.3410 C.ar      1 <0>        -0.0807
     17 C14         2.4169   -4.0662    3.5010 C.ar      1 <0>        -0.1555
     18 C15         2.7122   -3.4291    4.6981 C.ar      1 <0>        -0.0945
     19 C16         2.9062   -2.0650    4.7394 C.ar      1 <0>        -0.1208
     20 C17         2.8030   -1.3184    3.5704 C.ar      1 <0>         0.0946
     21 N1          2.9913    0.0483    3.5806 N.ar      1 <0>        -0.2434
     22 H2          2.9597    2.3699    1.5924 H         1 <0>         0.2719
     23 C18         2.8914    0.7715    2.4532 C.ar      1 <0>         0.2397
     24 O3          3.0673    1.9772    2.5058 O.3       1 <0>        -0.1789
     25 O4          2.1039   -1.7671   -0.0389 O.3       1 <0>        -0.1422
     26 C19         2.3768   -1.1440   -1.1993 C.2       1 <0>         0.2725
     27 C20         2.5705    0.1925   -1.2530 C.2       1 <0>        -0.2626
     28 C21         2.8567    0.8081   -2.5139 C.1       1 <0>        -0.0648
     29 N2          3.0837    1.2965   -3.5141 N.1       1 <0>        -0.0693
     30 N3          2.4583   -1.8819   -2.3537 N.pl3     1 <0>        -0.3819
     31 H3         -4.4877    3.6526    0.0557 H         1 <0>         0.1109
     32 H4         -3.6377    2.3758   -0.8476 H         1 <0>         0.0663
     33 H5         -3.6225    2.3676    0.9324 H         1 <0>         0.0672
     34 H6         -2.1453    1.1929    0.0140 H         1 <0>         0.1429
     35 H7          0.0044   -0.0055   -0.0008 H         1 <0>         0.1352
     36 H8          2.0932    3.7128    0.0002 H         1 <0>         0.1355
     37 H9          1.7746    5.5767    0.9004 H         1 <0>         0.0638
     38 H10         1.7591    5.5844   -0.8795 H         1 <0>         0.0682
     39 H11         1.0514    6.9458    0.0226 H         1 <0>         0.1125
     40 H12         2.0803   -3.8538    1.4132 H         1 <0>         0.1365
     41 H13         2.2698   -5.1360    3.4859 H         1 <0>         0.1327
     42 H14         2.7919   -4.0081    5.6063 H         1 <0>         0.1349
     43 H15         3.1369   -1.5782    5.6754 H         1 <0>         0.1548
     44 H16         2.3199   -2.8416   -2.3266 H         1 <0>         0.2317
     45 H17         2.6541   -1.4438   -3.1966 H         1 <0>         0.2609
@<TRIPOS>BOND
     1    1    2 1
     2    1   31 1
     3    1   32 1
     4    1   33 1
     5    2    3 1
     6    3    8 ar
     7    3    4 ar
     8    4    5 ar
     9    4   34 1
    10    5    6 ar
    11    5   35 1
    12    6    7 ar
    13    6   11 1
    14    7    8 ar
    15    7   36 1
    16    8    9 1
    17    9   10 1
    18   10   37 1
    19   10   38 1
    20   10   39 1
    21   11   12 1
    22   11   27 1
    23   11   13 1
    24   13   23 ar
    25   13   14 ar
    26   14   25 1
    27   14   15 ar
    28   15   16 ar
    29   15   20 ar
    30   16   17 ar
    31   16   40 1
    32   17   18 ar
    33   17   41 1
    34   18   19 ar
    35   18   42 1
    36   19   20 ar
    37   19   43 1
    38   20   21 ar
    39   21   23 ar
    40   22   24 1
    41   23   24 1
    42   25   26 1
    43   26   27 2
    44   26   30 1
    45   27   28 1
    46   28   29 3
    47   30   44 1
    48   30   45 1
@<TRIPOS>MOLECULE
ZINC00804384
   45    47     0     0     0
SMALL
USER_CHARGES

@<TRIPOS>ATOM
      1 C1          5.4809   -3.6791   -0.3955 C.3       1 <0>        -0.1835
      2 C2          4.7368   -2.4277   -0.0064 C.ar      1 <0>        -0.0215
      3 C3          5.1836   -1.1942   -0.4421 C.ar      1 <0>        -0.1531
      4 C4          4.5013   -0.0463   -0.0849 C.ar      1 <0>        -0.0245
      5 C5          3.3722   -0.1319    0.7081 C.ar      1 <0>        -0.7707
      6 C6          2.9285   -1.3649    1.1481 C.ar      1 <0>        -0.0261
      7 C7          3.6078   -2.5133    0.7865 C.ar      1 <0>        -0.1534
      8 S1          2.5029    1.3314    1.1639 S.o2      1 <0>         2.7800
      9 O1          3.4354    2.4003    1.0809 O.2       1 <0>        -0.9084
     10 O2          1.7959    1.0282    2.3587 O.2       1 <0>        -0.8823
     11 N1          1.3619    1.6069   -0.0042 N.pl3     1 <0>        -0.8259
     12 C8          1.5587    2.4092   -1.2253 C.3       1 <0>        -0.0041
     13 C9          0.1365    2.8715   -1.6295 C.3       1 <0>        -0.1682
     14 C10        -0.7117    1.6245   -1.2653 C.3       1 <0>        -0.1676
     15 C11        -0.0150    1.0913    0.0043 C.3       1 <0>         0.0287
     16 H1         -0.0028    0.0015   -0.0095 H         1 <0>         0.1037
     17 C12        -0.7377    1.5801    1.2331 C.2       1 <0>         0.2820
     18 O3         -0.1629    2.2870    2.0337 O.2       1 <0>        -0.3096
     19 N2         -2.0227    1.2316    1.4423 N.am      1 <0>        -0.3299
     20 C13        -2.6652    1.6047    2.6302 C.ar      1 <0>         0.0549
     21 C14        -3.6026    0.7590    3.2080 C.ar      1 <0>        -0.1494
     22 C15        -4.2323    1.1255    4.3810 C.ar      1 <0>        -0.1382
     23 C16        -3.9359    2.3427    4.9768 C.ar      1 <0>         0.0535
     24 C17        -3.0029    3.1902    4.3974 C.ar      1 <0>        -0.1355
     25 C18        -2.3690    2.8229    3.2270 C.ar      1 <0>        -0.1103
     26 O4         -4.5604    2.7053    6.1288 O.3       1 <0>        -0.2902
     27 H2          6.2443   -3.8952    0.3520 H         1 <0>         0.0950
     28 H3          4.7825   -4.5139   -0.4534 H         1 <0>         0.0853
     29 H4          5.9542   -3.5333   -1.3665 H         1 <0>         0.0855
     30 H5          6.0659   -1.1274   -1.0614 H         1 <0>         0.1359
     31 H6          4.8506    0.9174   -0.4250 H         1 <0>         0.1483
     32 H7          2.0489   -1.4314    1.7713 H         1 <0>         0.1483
     33 H8          3.2589   -3.4769    1.1272 H         1 <0>         0.1358
     34 H9          2.1923    3.2708   -1.0150 H         1 <0>         0.1129
     35 H10         1.9992    1.7986   -2.0134 H         1 <0>         0.0763
     36 H11        -0.1730    3.7386   -1.0460 H         1 <0>         0.1064
     37 H12         0.0830    3.0820   -2.6977 H         1 <0>         0.0961
     38 H13        -0.6738    0.8852   -2.0653 H         1 <0>         0.0968
     39 H14        -1.7418    1.9083   -1.0495 H         1 <0>         0.0962
     40 H15        -2.5027    0.7226    0.7705 H         1 <0>         0.2275
     41 H16        -3.8365   -0.1868    2.7421 H         1 <0>         0.1293
     42 H17        -4.9585    0.4659    4.8328 H         1 <0>         0.1395
     43 H18        -2.7726    4.1377    4.8618 H         1 <0>         0.1444
     44 H19        -1.6432    3.4831    2.7757 H         1 <0>         0.1675
     45 H20        -5.3826    3.1958    5.9929 H         1 <0>         0.2224
@<TRIPOS>BOND
     1    1    2 1
     2    1   27 1
     3    1   28 1
     4    1   29 1
     5    2    7 ar
     6    2    3 ar
     7    3    4 ar
     8    3   30 1
     9    4    5 ar
    10    4   31 1
    11    5    6 ar
    12    5    8 1
    13    6    7 ar
    14    6   32 1
    15    7   33 1
    16    8    9 2
    17    8   10 2
    18    8   11 1
    19   11   15 1
    20   11   12 1
    21   12   13 1
    22   12   34 1
    23   12   35 1
    24   13   14 1
    25   13   36 1
    26   13   37 1
    27   14   15 1
    28   14   38 1
    29   14   39 1
    30   15   16 1
    31   15   17 1
    32   17   18 2
    33   17   19 am
    34   19   20 1
    35   19   40 1
    36   20   25 ar
    37   20   21 ar
    38   21   22 ar
    39   21   41 1
    40   22   23 ar
    41   22   42 1
    42   23   24 ar
    43   23   26 1
    44   24   25 ar
    45   24   43 1
    46   25   44 1
    47   26   45 1
@<TRIPOS>MOLECULE
ZINC00804424
   42    44     0     0     0
SMALL
USER_CHARGES

@<TRIPOS>ATOM
      1 C1          2.6408    0.2323    0.0651 C.ar      1 <0>        -0.1151
      2 C2          3.8885   -0.3594    0.0674 C.ar      1 <0>        -0.1344
      3 C3          4.7475   -0.1716   -1.0055 C.ar      1 <0>         0.0529
      4 C4          4.3517    0.6060   -2.0839 C.ar      1 <0>        -0.1358
      5 C5          3.1019    1.1933   -2.0902 C.ar      1 <0>        -0.1463
      6 C6          2.2416    1.0057   -1.0167 C.ar      1 <0>         0.0591
      7 N1          0.9733    1.6012   -1.0225 N.am      1 <0>        -0.3213
      8 C7         -0.0652    0.9807   -0.4284 C.2       1 <0>         0.2918
      9 O1          0.0765   -0.1321    0.0329 O.2       1 <0>        -0.3294
     10 C8         -1.4041    1.6670   -0.3429 C.3       1 <0>         0.0312
     11 H1         -1.5428    2.3177   -1.2062 H         1 <0>         0.0920
     12 C9         -1.4876    2.4946    0.9570 C.3       1 <0>        -0.1587
     13 C10        -2.9577    2.2768    1.4110 C.3       1 <0>        -0.1737
     14 C11        -3.2048    0.8097    0.9791 C.3       1 <0>         0.0048
     15 N2         -2.4780    0.6639   -0.2952 N.pl3     1 <0>        -0.8262
     16 S1         -2.8147   -0.4464   -1.4768 S.o2      1 <0>         2.7819
     17 O2         -1.6383   -0.5713   -2.2639 O.2       1 <0>        -0.8979
     18 O3         -3.4198   -1.5573   -0.8296 O.2       1 <0>        -0.8972
     19 C12        -4.0460    0.2605   -2.5203 C.ar      1 <0>        -0.7817
     20 C13        -5.3850    0.0956   -2.2183 C.ar      1 <0>        -0.0024
     21 C14        -6.3515    0.6537   -3.0334 C.ar      1 <0>        -0.1910
     22 C15        -5.9786    1.3693   -4.1585 C.ar      1 <0>         0.1513
     23 C16        -4.6374    1.5293   -4.4628 C.ar      1 <0>        -0.1918
     24 C17        -3.6725    0.9748   -3.6434 C.ar      1 <0>        -0.0044
     25 F1         -6.9227    1.9113   -4.9586 F         1 <0>        -0.0980
     26 O4          5.9779   -0.7503   -1.0003 O.3       1 <0>        -0.2897
     27 H2          1.9738    0.0897    0.9025 H         1 <0>         0.1601
     28 H3          4.1972   -0.9652    0.9066 H         1 <0>         0.1436
     29 H4          5.0209    0.7519   -2.9189 H         1 <0>         0.1405
     30 H5          2.7935    1.7980   -2.9302 H         1 <0>         0.1315
     31 H6          0.8428    2.4600   -1.4541 H         1 <0>         0.2284
     32 H7         -0.7928    2.1106    1.7039 H         1 <0>         0.1086
     33 H8         -1.2957    3.5486    0.7561 H         1 <0>         0.0952
     34 H9         -3.6307    2.9565    0.8883 H         1 <0>         0.0931
     35 H10        -3.0549    2.3878    2.4909 H         1 <0>         0.1016
     36 H11        -4.2700    0.6322    0.8308 H         1 <0>         0.0878
     37 H12        -2.8050    0.1224    1.7246 H         1 <0>         0.1047
     38 H13        -5.6757   -0.4661   -1.3429 H         1 <0>         0.1552
     39 H14        -7.3974    0.5282   -2.7950 H         1 <0>         0.1519
     40 H15        -4.3454    2.0876   -5.3400 H         1 <0>         0.1511
     41 H16        -2.6263    1.0999   -3.8804 H         1 <0>         0.1546
     42 H17         6.6691   -0.2013   -0.6053 H         1 <0>         0.2224
@<TRIPOS>BOND
     1    1    6 ar
     2    1    2 ar
     3    1   27 1
     4    2    3 ar
     5    2   28 1
     6    3    4 ar
     7    3   26 1
     8    4    5 ar
     9    4   29 1
    10    5    6 ar
    11    5   30 1
    12    6    7 1
    13    7    8 am
    14    7   31 1
    15    8    9 2
    16    8   10 1
    17   10   11 1
    18   10   15 1
    19   10   12 1
    20   12   13 1
    21   12   32 1
    22   12   33 1
    23   13   14 1
    24   13   34 1
    25   13   35 1
    26   14   15 1
    27   14   36 1
    28   14   37 1
    29   15   16 1
    30   16   17 2
    31   16   18 2
    32   16   19 1
    33   19   24 ar
    34   19   20 ar
    35   20   21 ar
    36   20   38 1
    37   21   22 ar
    38   21   39 1
    39   22   23 ar
    40   22   25 1
    41   23   24 ar
    42   23   40 1
    43   24   41 1
    44   26   42 1
@<TRIPOS>MOLECULE
ZINC00806199
   41    42     0     0     0
SMALL
USER_CHARGES

@<TRIPOS>ATOM
      1 C1          6.6738   -0.0805    2.9664 C.3       1 <0>        -0.2318
      2 C2          5.3765    0.7245    2.8667 C.3       1 <0>        -0.0011
      3 N1          5.5981    1.9059    2.0292 N.pl3     1 <0>        -0.8349
      4 C3          6.1470    3.1295    2.6190 C.3       1 <0>        -0.0133
      5 C4          5.0124    3.9554    3.2283 C.3       1 <0>        -0.2369
      6 S1          5.2280    1.8582    0.4158 S.o2      1 <0>         2.7719
      7 O1          5.2693    0.4913    0.0298 O.2       1 <0>        -0.9044
      8 O2          6.0255    2.8519   -0.2134 O.2       1 <0>        -0.9167
      9 C5          3.5525    2.3779    0.2500 C.2       1 <0>        -0.8161
     10 C6          2.5324    1.4613    0.3069 C.2       1 <0>        -0.0199
     11 C7          1.2410    1.9444    0.1628 C.2       1 <0>        -0.3545
     12 S2          1.5245    3.6946   -0.0352 S.3       1 <0>         0.4275
     13 C8          3.2549    3.6916    0.0704 C.2       1 <0>        -0.2119
     14 C9         -0.0269    1.2096    0.1761 C.2       1 <0>         0.3900
     15 O3         -0.0288    0.0016    0.3250 O.2       1 <0>        -0.3302
     16 N2         -1.1906    1.8709    0.0179 N.am      1 <0>        -0.3222
     17 C10        -2.3903    1.1599   -0.0859 C.ar      1 <0>         0.0763
     18 C11        -3.5649    1.6993    0.4241 C.ar      1 <0>        -0.1714
     19 C12        -4.7499    0.9972    0.3211 C.ar      1 <0>        -0.0977
     20 C13        -4.7707   -0.2430   -0.2889 C.ar      1 <0>        -0.1694
     21 C14        -3.6007   -0.7864   -0.8003 C.ar      1 <0>         0.0902
     22 C15        -2.4103   -0.0828   -0.7033 C.ar      1 <0>        -0.1539
     23 O4         -3.6230   -2.0054   -1.4006 O.3       1 <0>        -0.2860
     24 H1          6.9840   -0.3946    1.9698 H         1 <0>         0.0958
     25 H2          7.4527    0.5391    3.4109 H         1 <0>         0.0755
     26 H3          6.5090   -0.9595    3.5896 H         1 <0>         0.0832
     27 H4          5.0664    1.0387    3.8633 H         1 <0>         0.0863
     28 H5          4.5977    0.1049    2.4223 H         1 <0>         0.0988
     29 H6          6.8642    2.8677    3.3969 H         1 <0>         0.0969
     30 H7          6.6465    3.7131    1.8457 H         1 <0>         0.1140
     31 H8          5.4208    4.8658    3.6671 H         1 <0>         0.0845
     32 H9          4.2951    4.2171    2.4503 H         1 <0>         0.0692
     33 H10         4.5128    3.3718    4.0015 H         1 <0>         0.0825
     34 H11         2.7274    0.4093    0.4543 H         1 <0>         0.1843
     35 H12         3.9322    4.5305    0.0081 H         1 <0>         0.2085
     36 H13        -1.1960    2.8400   -0.0241 H         1 <0>         0.2333
     37 H14        -3.5515    2.6683    0.9008 H         1 <0>         0.1303
     38 H15        -5.6620    1.4181    0.7177 H         1 <0>         0.1348
     39 H16        -5.6988   -0.7896   -0.3679 H         1 <0>         0.1406
     40 H17        -1.4996   -0.5023   -1.1045 H         1 <0>         0.1702
     41 H18        -3.7902   -1.9721   -2.3525 H         1 <0>         0.2275
@<TRIPOS>BOND
     1    1    2 1
     2    1   24 1
     3    1   25 1
     4    1   26 1
     5    2    3 1
     6    2   27 1
     7    2   28 1
     8    3    4 1
     9    3    6 1
    10    4    5 1
    11    4   29 1
    12    4   30 1
    13    5   31 1
    14    5   32 1
    15    5   33 1
    16    6    7 2
    17    6    8 2
    18    6    9 1
    19    9   13 2
    20    9   10 1
    21   10   11 2
    22   10   34 1
    23   11   12 1
    24   11   14 1
    25   12   13 1
    26   13   35 1
    27   14   15 2
    28   14   16 am
    29   16   17 1
    30   16   36 1
    31   17   22 ar
    32   17   18 ar
    33   18   19 ar
    34   18   37 1
    35   19   20 ar
    36   19   38 1
    37   20   21 ar
    38   20   39 1
    39   21   22 ar
    40   21   23 1
    41   22   40 1
    42   23   41 1
@<TRIPOS>MOLECULE
ZINC00806331
   43    46     0     0     0
SMALL
USER_CHARGES

@<TRIPOS>ATOM
      1 C1         -2.3752    0.0589    0.0241 C.3       1 <0>        -0.0657
      2 O1         -1.1654   -0.7015    0.0090 O.3       1 <0>        -0.1999
      3 C2          0.0021   -0.0041    0.0020 C.ar      1 <0>         0.0786
      4 C3         -0.0167    1.3814    0.0096 C.ar      1 <0>        -0.2116
      5 C4          1.1710    2.0888    0.0021 C.ar      1 <0>        -0.0962
      6 C5          2.3792    1.4170   -0.0130 C.ar      1 <0>        -0.1372
      7 C6          2.4050    0.0349   -0.0207 C.ar      1 <0>        -0.0590
      8 C7          1.2182   -0.6803   -0.0132 C.ar      1 <0>         0.0427
      9 O2          1.2418   -2.0400   -0.0212 O.3       1 <0>        -0.2159
     10 C8          1.2412   -2.6814   -1.2982 C.3       1 <0>        -0.0718
     11 C9          3.7239   -0.6941   -0.0377 C.3       1 <0>         0.0932
     12 H1          3.5494   -1.7700   -0.0312 H         1 <0>         0.1328
     13 C10         4.5367   -0.3026    1.1691 C.2       1 <0>        -0.2546
     14 C11         4.3512   -0.6498    2.5124 C.2       1 <0>         0.0525
     15 N1          5.3091   -0.0732    3.2162 N.2       1 <0>        -0.0517
     16 N2          6.1266    0.6535    2.3368 N.pl3     1 <0>        -0.1731
     17 H2          6.9306    1.1912    2.5907 H         1 <0>         0.2887
     18 C12         5.6376    0.4995    1.0885 C.2       1 <0>         0.1038
     19 O3          6.0887    1.0078   -0.0855 O.3       1 <0>        -0.1367
     20 C13         5.5907    0.4858   -1.2248 C.2       1 <0>         0.2725
     21 C14         4.5007   -0.3118   -1.2729 C.2       1 <0>        -0.2581
     22 C15         4.0673   -0.8120   -2.5428 C.1       1 <0>        -0.0606
     23 N3          3.7235   -1.2088   -3.5502 N.1       1 <0>        -0.0786
     24 N4          6.2281    0.7815   -2.4041 N.pl3     1 <0>        -0.3890
     25 C16         3.2730   -1.5086    3.0489 C.2       1 <0>        -0.2391
     26 C17         3.3173   -2.4030    4.0839 C.2       1 <0>        -0.1436
     27 C18         2.1714   -3.0960    4.4103 C.2       1 <0>        -0.1898
     28 C19         1.0405   -2.8796    3.6915 C.2       1 <0>        -0.3253
     29 S1          1.5772   -1.6540    2.5097 S.3       1 <0>         0.4556
     30 H3         -3.2297   -0.6179    0.0283 H         1 <0>         0.1085
     31 H4         -2.4013    0.6825    0.9178 H         1 <0>         0.0685
     32 H5         -2.4176    0.6920   -0.8621 H         1 <0>         0.0669
     33 H6         -0.9592    1.9087    0.0170 H         1 <0>         0.1367
     34 H7          1.1550    3.1687    0.0080 H         1 <0>         0.1308
     35 H8          3.3049    1.9732   -0.0189 H         1 <0>         0.1334
     36 H9          1.2613   -3.7626   -1.1617 H         1 <0>         0.1012
     37 H10         0.3410   -2.4009   -1.8452 H         1 <0>         0.0677
     38 H11         2.1207   -2.3698   -1.8617 H         1 <0>         0.0643
     39 H12         5.8935    0.4205   -3.2400 H         1 <0>         0.2613
     40 H13         7.0130    1.3514   -2.4016 H         1 <0>         0.2289
     41 H14         4.2318   -2.5605    4.6364 H         1 <0>         0.1463
     42 H15         2.1745   -3.8055    5.2245 H         1 <0>         0.1386
     43 H16         0.0667   -3.3324    3.8053 H         1 <0>         0.1841
@<TRIPOS>BOND
     1    1    2 1
     2    1   30 1
     3    1   31 1
     4    1   32 1
     5    2    3 1
     6    3    8 ar
     7    3    4 ar
     8    4    5 ar
     9    4   33 1
    10    5    6 ar
    11    5   34 1
    12    6    7 ar
    13    6   35 1
    14    7    8 ar
    15    7   11 1
    16    8    9 1
    17    9   10 1
    18   10   36 1
    19   10   37 1
    20   10   38 1
    21   11   12 1
    22   11   21 1
    23   11   13 1
    24   13   18 2
    25   13   14 1
    26   14   15 2
    27   14   25 1
    28   15   16 1
    29   16   17 1
    30   16   18 1
    31   18   19 1
    32   19   20 1
    33   20   21 2
    34   20   24 1
    35   21   22 1
    36   22   23 3
    37   24   39 1
    38   24   40 1
    39   25   29 1
    40   25   26 2
    41   26   27 1
    42   26   41 1
    43   27   28 2
    44   27   42 1
    45   28   29 1
    46   28   43 1
@<TRIPOS>MOLECULE
ZINC00806331
   43    46     0     0     0
SMALL
USER_CHARGES

@<TRIPOS>ATOM
      1 C1         -2.3752    0.0594    0.0240 C.3       1 <0>        -0.0657
      2 O1         -1.1655   -0.7011    0.0090 O.3       1 <0>        -0.2012
      3 C2          0.0021   -0.0037    0.0020 C.ar      1 <0>         0.0772
      4 C3         -0.0166    1.3818    0.0095 C.ar      1 <0>        -0.2132
      5 C4          1.1711    2.0891    0.0020 C.ar      1 <0>        -0.0955
      6 C5          2.3793    1.4172   -0.0131 C.ar      1 <0>        -0.1362
      7 C6          2.4050    0.0351   -0.0207 C.ar      1 <0>        -0.0574
      8 C7          1.2181   -0.6800   -0.0132 C.ar      1 <0>         0.0360
      9 O2          1.2416   -2.0397   -0.0212 O.3       1 <0>        -0.2204
     10 C8          1.2410   -2.6812   -1.2982 C.3       1 <0>        -0.0712
     11 C9          3.7238   -0.6940   -0.0377 C.3       1 <0>         0.0947
     12 H1          3.5493   -1.7699   -0.0312 H         1 <0>         0.1284
     13 C10         4.5366   -0.3025    1.1691 C.2       1 <0>        -0.2695
     14 C11         4.3511   -0.6497    2.5124 C.2       1 <0>         0.0897
     15 N1          5.3085   -0.0723    3.2163 N.pl3     1 <0>        -0.1324
     16 N2          6.1256    0.6549    2.3370 N.2       1 <0>        -0.0931
     17 H2          5.4302   -0.1417    4.2065 H         1 <0>         0.2941
     18 C12         5.6370    0.5004    1.0886 C.2       1 <0>         0.0816
     19 O3          6.0879    1.0089   -0.0853 O.3       1 <0>        -0.1056
     20 C13         5.5906    0.4863   -1.2247 C.2       1 <0>         0.2758
     21 C14         4.5012   -0.3121   -1.2729 C.2       1 <0>        -0.2718
     22 C15         4.0684   -0.8128   -2.5428 C.1       1 <0>        -0.0582
     23 N3          3.7252   -1.2100   -3.5502 N.1       1 <0>        -0.0854
     24 N4          6.2280    0.7823   -2.4039 N.pl3     1 <0>        -0.3866
     25 C16         3.2728   -1.5084    3.0489 C.2       1 <0>        -0.2787
     26 C17         3.3171   -2.4028    4.0840 C.2       1 <0>        -0.1562
     27 C18         2.1711   -3.0957    4.4104 C.2       1 <0>        -0.1896
     28 C19         1.0402   -2.8792    3.6916 C.2       1 <0>        -0.3240
     29 S1          1.5770   -1.6537    2.5097 S.3       1 <0>         0.4943
     30 H3         -3.2298   -0.6173    0.0283 H         1 <0>         0.1084
     31 H4         -2.4013    0.6831    0.9177 H         1 <0>         0.0676
     32 H5         -2.4176    0.6925   -0.8622 H         1 <0>         0.0682
     33 H6         -0.9591    1.9091    0.0169 H         1 <0>         0.1367
     34 H7          1.1552    3.1690    0.0079 H         1 <0>         0.1320
     35 H8          3.3050    1.9733   -0.0190 H         1 <0>         0.1385
     36 H9          1.2610   -3.7624   -1.1616 H         1 <0>         0.1004
     37 H10         0.3408   -2.4006   -1.8452 H         1 <0>         0.0683
     38 H11         2.1205   -2.3696   -1.8617 H         1 <0>         0.0672
     39 H12         5.8939    0.4210   -3.2398 H         1 <0>         0.2593
     40 H13         7.0125    1.3528   -2.4013 H         1 <0>         0.2310
     41 H14         4.2316   -2.5603    4.6365 H         1 <0>         0.1343
     42 H15         2.1742   -3.8051    5.2246 H         1 <0>         0.1409
     43 H16         0.0664   -3.3319    3.8054 H         1 <0>         0.1875
@<TRIPOS>BOND
     1    1    2 1
     2    1   30 1
     3    1   31 1
     4    1   32 1
     5    2    3 1
     6    3    8 ar
     7    3    4 ar
     8    4    5 ar
     9    4   33 1
    10    5    6 ar
    11    5   34 1
    12    6    7 ar
    13    6   35 1
    14    7    8 ar
    15    7   11 1
    16    8    9 1
    17    9   10 1
    18   10   36 1
    19   10   37 1
    20   10   38 1
    21   11   12 1
    22   11   21 1
    23   11   13 1
    24   13   18 1
    25   13   14 2
    26   14   25 1
    27   14   15 1
    28   15   17 1
    29   15   16 1
    30   16   18 2
    31   18   19 1
    32   19   20 1
    33   20   21 2
    34   20   24 1
    35   21   22 1
    36   22   23 3
    37   24   39 1
    38   24   40 1
    39   25   29 1
    40   25   26 2
    41   26   27 1
    42   26   41 1
    43   27   28 2
    44   27   42 1
    45   28   29 1
    46   28   43 1
@<TRIPOS>MOLECULE
ZINC00808721
   45    48     0     0     0
SMALL
USER_CHARGES

@<TRIPOS>ATOM
      1 C1          2.7789    2.5987   -2.8770 C.3       1 <0>        -0.1773
      2 C2          1.8517    1.9572   -1.8771 C.2       1 <0>         0.1404
      3 C3          1.1137    2.6584   -0.9955 C.2       1 <0>        -0.2613
      4 C4          0.3773    1.6847   -0.1330 C.3       1 <0>        -0.0235
      5 C5          0.6689    1.7763    1.3320 C.2       1 <0>        -0.2687
      6 C6          1.5563    0.7845    1.6298 C.2       1 <0>         0.2714
      7 O1          1.9144    0.0629    0.5475 O.3       1 <0>        -0.1927
      8 C7          1.0215    0.3196   -0.5264 C.3       1 <0>         0.2368
      9 O2          1.6791    0.6250   -1.7754 O.3       1 <0>        -0.1574
     10 C8         -0.1179   -0.6415   -0.6399 C.ar      1 <0>        -0.0653
     11 C9         -0.1404   -2.0176   -0.7792 C.ar      1 <0>        -0.0871
     12 C10        -1.3409   -2.7008   -0.8155 C.ar      1 <0>        -0.1090
     13 C11        -2.5389   -2.0148   -0.7140 C.ar      1 <0>        -0.1190
     14 C12        -2.5384   -0.6431   -0.5899 C.ar      1 <0>        -0.0666
     15 C13        -1.3275    0.0603   -0.5660 C.ar      1 <0>        -0.1304
     16 C14        -1.0688    1.5130   -0.4726 C.2       1 <0>         0.2968
     17 O3         -1.8774    2.4001   -0.6446 O.2       1 <0>        -0.2259
     18 N1          2.0336    0.5461    2.8940 N.pl3     1 <0>        -0.3697
     19 C15         0.1191    2.7282    2.2497 C.1       1 <0>        -0.0334
     20 N2         -0.3170    3.4833    2.9778 N.1       1 <0>        -0.0668
     21 C16         1.0474    4.0693   -0.9017 C.2       1 <0>         0.3976
     22 O4          1.6070    4.7611   -1.7315 O.2       1 <0>        -0.3897
     23 O5          0.3637    4.6470    0.1079 O.3       1 <0>        -0.2419
     24 C17         0.2317    6.0694    0.0717 C.3       1 <0>        -0.0009
     25 C18        -0.4370    6.5525    1.3602 C.3       1 <0>        -0.1162
     26 C19         0.5022    6.3116    2.5437 C.3       1 <0>        -0.2055
     27 C20        -0.7417    8.0476    1.2471 C.3       1 <0>        -0.2055
     28 H1          3.7704    2.7052   -2.4369 H         1 <0>         0.1107
     29 H2          2.8419    1.9733   -3.7675 H         1 <0>         0.0951
     30 H3          2.3950    3.5817   -3.1498 H         1 <0>         0.1522
     31 H4          0.7884   -2.5628   -0.8599 H         1 <0>         0.1439
     32 H5         -1.3445   -3.7753   -0.9240 H         1 <0>         0.1403
     33 H6         -3.4738   -2.5552   -0.7322 H         1 <0>         0.1419
     34 H7         -3.4737   -0.1088   -0.5106 H         1 <0>         0.1521
     35 H8          2.6641   -0.1751    3.0464 H         1 <0>         0.2335
     36 H9          1.7404    1.0987    3.6353 H         1 <0>         0.2601
     37 H10         1.2185    6.5237   -0.0179 H         1 <0>         0.0865
     38 H11        -0.3792    6.3560   -0.7843 H         1 <0>         0.0844
     39 H12        -1.3656    6.0032    1.5156 H         1 <0>         0.1107
     40 H13         1.3493    6.9946    2.4802 H         1 <0>         0.0625
     41 H14        -0.0356    6.4854    3.4757 H         1 <0>         0.0780
     42 H15         0.8622    5.2830    2.5183 H         1 <0>         0.0929
     43 H16        -1.4109    8.2193    0.4040 H         1 <0>         0.0729
     44 H17        -1.2182    8.3918    2.1650 H         1 <0>         0.0805
     45 H18         0.1868    8.5969    1.0917 H         1 <0>         0.0727
@<TRIPOS>BOND
     1    1    2 1
     2    1   28 1
     3    1   29 1
     4    1   30 1
     5    2    9 1
     6    2    3 2
     7    3    4 1
     8    3   21 1
     9    4    8 1
    10    4   16 1
    11    4    5 1
    12    5    6 2
    13    5   19 1
    14    6    7 1
    15    6   18 1
    16    7    8 1
    17    8    9 1
    18    8   10 1
    19   10   15 ar
    20   10   11 ar
    21   11   12 ar
    22   11   31 1
    23   12   13 ar
    24   12   32 1
    25   13   14 ar
    26   13   33 1
    27   14   15 ar
    28   14   34 1
    29   15   16 1
    30   16   17 2
    31   18   35 1
    32   18   36 1
    33   19   20 3
    34   21   22 2
    35   21   23 1
    36   23   24 1
    37   24   25 1
    38   24   37 1
    39   24   38 1
    40   25   26 1
    41   25   27 1
    42   25   39 1
    43   26   40 1
    44   26   41 1
    45   26   42 1
    46   27   43 1
    47   27   44 1
    48   27   45 1
@<TRIPOS>MOLECULE
ZINC00809403
   44    47     0     0     0
SMALL
USER_CHARGES

@<TRIPOS>ATOM
      1 C1          4.1923   10.4436   -4.3520 C.3       1 <0>        -0.0620
      2 O1          3.9885    9.9741   -3.0178 O.3       1 <0>        -0.2056
      3 C2          3.9667    8.6278   -2.8341 C.ar      1 <0>         0.1332
      4 C3          3.7730    8.1033   -1.5640 C.ar      1 <0>        -0.1672
      5 C4          3.7517    6.7345   -1.3764 C.ar      1 <0>        -0.0059
      6 C5          3.9279    5.8847   -2.4516 C.ar      1 <0>        -0.1873
      7 C6          4.1162    6.4042   -3.7245 C.ar      1 <0>         0.1294
      8 C7          4.1384    7.7772   -3.9152 C.ar      1 <0>        -0.3118
      9 O2          4.2847    5.5679   -4.7823 O.3       1 <0>        -0.2120
     10 C8          4.4800    6.1722   -6.0625 C.3       1 <0>        -0.0619
     11 C9          3.5422    6.1675    0.0041 C.3       1 <0>         0.0830
     12 H1          3.4226    6.9845    0.7157 H         1 <0>         0.1323
     13 C10         2.3018    5.3154    0.0102 C.2       1 <0>        -0.2601
     14 C11         2.3941    3.9553    0.0010 C.2       1 <0>         0.1704
     15 C12         1.1476    3.1734    0.0080 C.ar      1 <0>        -0.1363
     16 C13         1.1726    1.7773    0.0004 C.ar      1 <0>        -0.0597
     17 C14        -0.0126    1.0758    0.0080 C.ar      1 <0>        -0.1584
     18 C15        -1.2252    1.7497    0.0174 C.ar      1 <0>        -0.0732
     19 C16        -1.2636    3.1282    0.0299 C.ar      1 <0>        -0.1464
     20 C17        -0.0800    3.8547    0.0231 C.ar      1 <0>         0.1363
     21 O3         -0.0975    5.2051    0.0314 O.3       1 <0>        -0.1699
     22 C18         1.0351    5.9252    0.0264 C.2       1 <0>         0.3732
     23 O4          0.9636    7.1417    0.0359 O.2       1 <0>        -0.2872
     24 O5          3.5858    3.3296   -0.0155 O.3       1 <0>        -0.1404
     25 C19         4.6966    3.9903    0.3571 C.2       1 <0>         0.2589
     26 C20         4.7398    5.3438    0.3881 C.2       1 <0>        -0.2512
     27 C21         5.9458    6.0009    0.7936 C.1       1 <0>        -0.0632
     28 N1          6.9025    6.5221    1.1153 N.1       1 <0>        -0.0656
     29 N2          5.8127    3.2760    0.7150 N.pl3     1 <0>        -0.3839
     30 H2          5.1518   10.0820   -4.7218 H         1 <0>         0.0658
     31 H3          3.3927   10.0733   -4.9936 H         1 <0>         0.0665
     32 H4          4.1879   11.5336   -4.3582 H         1 <0>         0.1080
     33 H5          3.6392    8.7655   -0.7214 H         1 <0>         0.1529
     34 H6          3.9153    4.8152   -2.3017 H         1 <0>         0.1380
     35 H7          4.2897    8.1835   -4.9044 H         1 <0>         0.1382
     36 H8          5.3733    6.7962   -6.0372 H         1 <0>         0.0673
     37 H9          4.6010    5.3946   -6.8167 H         1 <0>         0.1060
     38 H10         3.6144    6.7868   -6.3100 H         1 <0>         0.0674
     39 H11         2.1155    1.2508   -0.0110 H         1 <0>         0.1484
     40 H12         0.0021   -0.0041    0.0020 H         1 <0>         0.1412
     41 H13        -2.1483    1.1891    0.0185 H         1 <0>         0.1434
     42 H14        -2.2133    3.6423    0.0412 H         1 <0>         0.1583
     43 H15         6.6198    3.7409    0.9859 H         1 <0>         0.2619
     44 H16         5.7943    2.3063    0.6970 H         1 <0>         0.2293
@<TRIPOS>BOND
     1    1    2 1
     2    1   30 1
     3    1   31 1
     4    1   32 1
     5    2    3 1
     6    3    8 ar
     7    3    4 ar
     8    4    5 ar
     9    4   33 1
    10    5    6 ar
    11    5   11 1
    12    6    7 ar
    13    6   34 1
    14    7    8 ar
    15    7    9 1
    16    8   35 1
    17    9   10 1
    18   10   36 1
    19   10   37 1
    20   10   38 1
    21   11   12 1
    22   11   26 1
    23   11   13 1
    24   13   22 1
    25   13   14 2
    26   14   15 1
    27   14   24 1
    28   15   20 ar
    29   15   16 ar
    30   16   17 ar
    31   16   39 1
    32   17   18 ar
    33   17   40 1
    34   18   19 ar
    35   18   41 1
    36   19   20 ar
    37   19   42 1
    38   20   21 1
    39   21   22 1
    40   22   23 2
    41   24   25 1
    42   25   26 2
    43   25   29 1
    44   26   27 1
    45   27   28 3
    46   29   43 1
    47   29   44 1
@<TRIPOS>MOLECULE
ZINC00809405
   44    47     0     0     0
SMALL
USER_CHARGES

@<TRIPOS>ATOM
      1 C1         -2.3659    6.3170   -4.3248 C.3       1 <0>        -0.0620
      2 O1         -2.1097    5.8656   -2.9934 O.3       1 <0>        -0.2056
      3 C2         -1.9783    4.5254   -2.8109 C.ar      1 <0>         0.1331
      4 C3         -1.7286    4.0183   -1.5435 C.ar      1 <0>        -0.1670
      5 C4         -1.5940    2.6557   -1.3575 C.ar      1 <0>        -0.0058
      6 C5         -1.7028    1.7952   -2.4331 C.ar      1 <0>        -0.1873
      7 C6         -1.9581    2.2969   -3.7015 C.ar      1 <0>         0.1294
      8 C7         -2.0931    3.6636   -3.8908 C.ar      1 <0>        -0.3117
      9 O2         -2.0698    1.4497   -4.7582 O.3       1 <0>        -0.2120
     10 C8         -2.3268    2.0362   -6.0357 C.3       1 <0>        -0.0619
     11 C9         -1.3218    2.1078    0.0197 C.3       1 <0>         0.0829
     12 H1         -1.2591    2.9334    0.7286 H         1 <0>         0.1319
     13 C10        -0.0164    1.3591    0.0095 C.2       1 <0>        -0.2601
     14 C11         0.0021   -0.0041    0.0020 C.2       1 <0>         0.1704
     15 C12         1.3080   -0.6819   -0.0137 C.ar      1 <0>        -0.1362
     16 C13         1.3971   -2.0754   -0.0202 C.ar      1 <0>        -0.0597
     17 C14         2.6356   -2.6777   -0.0343 C.ar      1 <0>        -0.1584
     18 C15         3.7891   -1.9072   -0.0431 C.ar      1 <0>        -0.0732
     19 C16         3.7150   -0.5302   -0.0367 C.ar      1 <0>        -0.1464
     20 C17         2.4760    0.0973   -0.0217 C.ar      1 <0>         0.1362
     21 O3          2.3838    1.4446   -0.0142 O.3       1 <0>        -0.1699
     22 C18         1.1964    2.0701    0.0018 C.2       1 <0>         0.3732
     23 O4          1.1688    3.2883    0.0097 O.2       1 <0>        -0.2871
     24 O5         -1.1353   -0.7244    0.0082 O.3       1 <0>        -0.1405
     25 C19        -2.2891   -0.1551    0.4008 C.2       1 <0>         0.2592
     26 C20        -2.4415    1.1905    0.4321 C.2       1 <0>        -0.2513
     27 C21        -3.6893    1.7483    0.8591 C.1       1 <0>        -0.0632
     28 N1         -4.6792    2.1908    1.1978 N.1       1 <0>        -0.0656
     29 N2         -3.3372   -0.9570    0.7784 N.pl3     1 <0>        -0.3840
     30 H2         -3.2976    5.8798   -4.6837 H         1 <0>         0.0658
     31 H3         -2.4487    7.4038   -4.3304 H         1 <0>         0.1080
     32 H4         -1.5468    6.0117   -4.9759 H         1 <0>         0.0665
     33 H5         -1.6390    4.6892   -0.7019 H         1 <0>         0.1529
     34 H6         -1.5928    0.7309   -2.2859 H         1 <0>         0.1381
     35 H7         -2.2871    4.0564   -4.8780 H         1 <0>         0.1383
     36 H8         -3.2673    2.5861   -6.0005 H         1 <0>         0.0673
     37 H9         -1.5163    2.7187   -6.2918 H         1 <0>         0.0674
     38 H10        -2.3927    1.2514   -6.7892 H         1 <0>         0.1060
     39 H11         0.5004   -2.6772   -0.0141 H         1 <0>         0.1484
     40 H12         2.7090   -3.7552   -0.0389 H         1 <0>         0.1412
     41 H13         4.7549   -2.3905   -0.0547 H         1 <0>         0.1434
     42 H14         4.6196    0.0598   -0.0431 H         1 <0>         0.1583
     43 H15        -3.2407   -1.9220    0.7601 H         1 <0>         0.2293
     44 H16        -4.1744   -0.5586    1.0636 H         1 <0>         0.2619
@<TRIPOS>BOND
     1    1    2 1
     2    1   30 1
     3    1   31 1
     4    1   32 1
     5    2    3 1
     6    3    8 ar
     7    3    4 ar
     8    4    5 ar
     9    4   33 1
    10    5    6 ar
    11    5   11 1
    12    6    7 ar
    13    6   34 1
    14    7    8 ar
    15    7    9 1
    16    8   35 1
    17    9   10 1
    18   10   36 1
    19   10   37 1
    20   10   38 1
    21   11   12 1
    22   11   26 1
    23   11   13 1
    24   13   22 1
    25   13   14 2
    26   14   15 1
    27   14   24 1
    28   15   20 ar
    29   15   16 ar
    30   16   17 ar
    31   16   39 1
    32   17   18 ar
    33   17   40 1
    34   18   19 ar
    35   18   41 1
    36   19   20 ar
    37   19   42 1
    38   20   21 1
    39   21   22 1
    40   22   23 2
    41   24   25 1
    42   25   26 2
    43   25   29 1
    44   26   27 1
    45   27   28 3
    46   29   43 1
    47   29   44 1
@<TRIPOS>MOLECULE
ZINC00809456
   42    44     0     0     0
SMALL
USER_CHARGES

@<TRIPOS>ATOM
      1 C1          8.6759    4.0439    5.6257 C.3       1 <0>        -0.2140
      2 C2          7.3162    4.6202    5.2258 C.3       1 <0>        -0.0126
      3 O1          6.8401    3.9502    4.0568 O.3       1 <0>        -0.2610
      4 C3          5.6431    4.3430    3.5695 C.2       1 <0>         0.3803
      5 O2          5.0214    5.2316    4.1245 O.2       1 <0>        -0.3574
      6 C4          5.1161    3.7280    2.4250 C.2       1 <0>        -0.3875
      7 C5          5.5829    4.0827    1.1985 C.2       1 <0>         0.2826
      8 O3          5.0999    3.5149    0.0816 O.3       1 <0>        -0.1101
      9 C6          3.8941    2.8956    0.1046 C.2       1 <0>        -0.0936
     10 C7          3.2011    2.6831   -1.1218 C.2       1 <0>         0.3008
     11 O4          3.6760    3.0481   -2.1865 O.2       1 <0>        -0.2948
     12 C8          1.9423    2.0337   -1.0656 C.2       1 <0>        -0.2829
     13 C9          1.4667    1.6520    0.1352 C.2       1 <0>         0.0845
     14 O5          2.1363    1.8693    1.2646 O.3       1 <0>        -0.0786
     15 C10         3.3331    2.4758    1.2568 C.2       1 <0>         0.0351
     16 C11         4.0437    2.6860    2.5713 C.3       1 <0>         0.0841
     17 H1          3.3240    3.0122    3.3221 H         1 <0>         0.1270
     18 C12         4.6673    1.3877    3.0148 C.ar      1 <0>        -0.0987
     19 C13         5.6208    0.7739    2.2241 C.ar      1 <0>        -0.0781
     20 C14         6.1974   -0.4138    2.6324 C.ar      1 <0>        -0.1641
     21 C15         5.8112   -0.9950    3.8283 C.ar      1 <0>         0.1027
     22 C16         4.8520   -0.3822    4.6167 C.ar      1 <0>        -0.1684
     23 C17         4.2812    0.8086    4.2092 C.ar      1 <0>        -0.0869
     24 F1          6.3696   -2.1594    4.2254 F         1 <0>        -0.1069
     25 C18         0.1289    0.9615    0.2028 C.3       1 <0>         0.0472
     26 O6          0.3152   -0.4505    0.0861 O.3       1 <0>        -0.3400
     27 N1          6.5624    5.0345    1.1005 N.pl3     1 <0>        -0.3777
     28 H2          8.5721    2.9790    5.8341 H         1 <0>         0.0898
     29 H3          9.3852    4.1871    4.8106 H         1 <0>         0.0832
     30 H4          9.0390    4.5549    6.5174 H         1 <0>         0.0874
     31 H5          7.4200    5.6850    5.0174 H         1 <0>         0.0791
     32 H6          6.6069    4.4769    6.0409 H         1 <0>         0.0882
     33 H7          1.3768    1.8486   -1.9668 H         1 <0>         0.1787
     34 H8          5.9182    1.2248    1.2888 H         1 <0>         0.1427
     35 H9          6.9458   -0.8907    2.0169 H         1 <0>         0.1467
     36 H10         4.5498   -0.8348    5.5495 H         1 <0>         0.1448
     37 H11         3.5330    1.2868    4.8240 H         1 <0>         0.1374
     38 H12        -0.5032    1.3132   -0.6126 H         1 <0>         0.0913
     39 H13        -0.3488    1.1873    1.1562 H         1 <0>         0.0839
     40 H14        -0.5060   -0.9599    0.1215 H         1 <0>         0.2246
     41 H15         6.9615    5.2328    0.2389 H         1 <0>         0.2363
     42 H16         6.8571    5.5106    1.8926 H         1 <0>         0.2550
@<TRIPOS>BOND
     1    1    2 1
     2    1   28 1
     3    1   29 1
     4    1   30 1
     5    2    3 1
     6    2   31 1
     7    2   32 1
     8    3    4 1
     9    4    5 2
    10    4    6 1
    11    6   16 1
    12    6    7 2
    13    7    8 1
    14    7   27 1
    15    8    9 1
    16    9   15 2
    17    9   10 1
    18   10   11 2
    19   10   12 1
    20   12   13 2
    21   12   33 1
    22   13   14 1
    23   13   25 1
    24   14   15 1
    25   15   16 1
    26   16   17 1
    27   16   18 1
    28   18   23 ar
    29   18   19 ar
    30   19   20 ar
    31   19   34 1
    32   20   21 ar
    33   20   35 1
    34   21   22 ar
    35   21   24 1
    36   22   23 ar
    37   22   36 1
    38   23   37 1
    39   25   26 1
    40   25   38 1
    41   25   39 1
    42   26   40 1
    43   27   41 1
    44   27   42 1
@<TRIPOS>MOLECULE
ZINC00809473
   42    44     0     0     0
SMALL
USER_CHARGES

@<TRIPOS>ATOM
      1 C1         -3.8861   -2.4838   -1.3148 C.3       1 <0>        -0.2139
      2 C2         -3.0929   -1.9746   -0.1097 C.3       1 <0>        -0.0124
      3 O1         -1.9461   -1.2534   -0.5644 O.3       1 <0>        -0.2627
      4 C3         -1.1336   -0.7339    0.3813 C.2       1 <0>         0.3813
      5 O2         -1.3941   -0.8904    1.5611 O.2       1 <0>        -0.3568
      6 C4          0.0096   -0.0145    0.0053 C.2       1 <0>        -0.3860
      7 C5          1.1234   -0.6855   -0.3908 C.2       1 <0>         0.2813
      8 O3          2.2357   -0.0287   -0.7574 O.3       1 <0>        -0.1090
      9 C6          2.4202    1.2577   -0.3710 C.2       1 <0>        -0.0957
     10 C7          3.7367    1.8021   -0.3826 C.2       1 <0>         0.3013
     11 O4          4.6945    1.1299   -0.7333 O.2       1 <0>        -0.2971
     12 C8          3.8979    3.1498    0.0269 C.2       1 <0>        -0.2837
     13 C9          2.8073    3.8442    0.4040 C.2       1 <0>         0.0842
     14 O5          1.5898    3.3068    0.4040 O.3       1 <0>        -0.0778
     15 C10         1.3917    2.0354    0.0239 C.2       1 <0>         0.0388
     16 C11        -0.0139    1.4871    0.0454 C.3       1 <0>         0.0819
     17 H1         -0.5153    1.8158    0.9557 H         1 <0>         0.1266
     18 C12        -0.7698    2.0060   -1.1507 C.ar      1 <0>        -0.0840
     19 C13        -0.3270    1.7153   -2.4275 C.ar      1 <0>        -0.1033
     20 C14        -1.0228    2.1876   -3.5246 C.ar      1 <0>        -0.1251
     21 C15        -2.1563    2.9582   -3.3448 C.ar      1 <0>        -0.1226
     22 C16        -2.5961    3.2533   -2.0680 C.ar      1 <0>        -0.1292
     23 C17        -1.9028    2.7774   -0.9709 C.ar      1 <0>        -0.1116
     24 C18         2.9709    5.2775    0.8400 C.3       1 <0>         0.0472
     25 O6          2.8429    6.1378   -0.2937 O.3       1 <0>        -0.3397
     26 N1          1.1108   -2.0546   -0.4168 N.pl3     1 <0>        -0.3781
     27 H2         -3.2560   -3.1426   -1.9124 H         1 <0>         0.0825
     28 H3         -4.7608   -3.0339   -0.9680 H         1 <0>         0.0866
     29 H4         -4.2065   -1.6377   -1.9227 H         1 <0>         0.0896
     30 H5         -2.7725   -2.8207    0.4982 H         1 <0>         0.0787
     31 H6         -3.7229   -1.3158    0.4879 H         1 <0>         0.0884
     32 H7          4.8749    3.6100    0.0362 H         1 <0>         0.1778
     33 H8          0.5607    1.1164   -2.5679 H         1 <0>         0.1356
     34 H9         -0.6794    1.9568   -4.5222 H         1 <0>         0.1311
     35 H10        -2.6984    3.3294   -4.2020 H         1 <0>         0.1282
     36 H11        -3.4817    3.8553   -1.9275 H         1 <0>         0.1290
     37 H12        -2.2464    3.0079    0.0267 H         1 <0>         0.1301
     38 H13         2.2023    5.5245    1.5723 H         1 <0>         0.0837
     39 H14         3.9557    5.4108    1.2879 H         1 <0>         0.0906
     40 H15         2.9374    7.0777   -0.0869 H         1 <0>         0.2238
     41 H16         0.2901   -2.5357   -0.2276 H         1 <0>         0.2547
     42 H17         1.9226   -2.5432   -0.6244 H         1 <0>         0.2355
@<TRIPOS>BOND
     1    1    2 1
     2    1   27 1
     3    1   28 1
     4    1   29 1
     5    2    3 1
     6    2   30 1
     7    2   31 1
     8    3    4 1
     9    4    5 2
    10    4    6 1
    11    6   16 1
    12    6    7 2
    13    7    8 1
    14    7   26 1
    15    8    9 1
    16    9   15 2
    17    9   10 1
    18   10   11 2
    19   10   12 1
    20   12   13 2
    21   12   32 1
    22   13   14 1
    23   13   24 1
    24   14   15 1
    25   15   16 1
    26   16   17 1
    27   16   18 1
    28   18   23 ar
    29   18   19 ar
    30   19   20 ar
    31   19   33 1
    32   20   21 ar
    33   20   34 1
    34   21   22 ar
    35   21   35 1
    36   22   23 ar
    37   22   36 1
    38   23   37 1
    39   24   25 1
    40   24   38 1
    41   24   39 1
    42   25   40 1
    43   26   41 1
    44   26   42 1
@<TRIPOS>MOLECULE
ZINC00809474
   42    44     0     0     0
SMALL
USER_CHARGES

@<TRIPOS>ATOM
      1 C1         -4.6871    1.9738   -0.5961 C.3       1 <0>        -0.2146
      2 C2         -3.4088    2.7777   -0.3501 C.3       1 <0>        -0.0054
      3 O1         -2.2888    1.8911   -0.3104 O.3       1 <0>        -0.2637
      4 C3         -1.0751    2.4454   -0.0999 C.2       1 <0>         0.3916
      5 O2         -0.9728    3.6505    0.0459 O.2       1 <0>        -0.4096
      6 C4          0.0671    1.6337   -0.0493 C.2       1 <0>        -0.3607
      7 C5          1.2627    2.1798    0.2970 C.2       1 <0>         0.3073
      8 O3          2.3790    1.4351    0.3512 O.3       1 <0>        -0.1143
      9 C6          2.2877    0.0865    0.4554 C.2       1 <0>        -0.0998
     10 C7          3.4085   -0.6527    0.9301 C.2       1 <0>         0.3006
     11 O4          4.4454   -0.0873    1.2421 O.2       1 <0>        -0.2955
     12 C8          3.2898   -2.0609    1.0305 C.2       1 <0>        -0.2846
     13 C9          2.1265   -2.6425    0.6746 C.2       1 <0>         0.0878
     14 O5          1.0978   -1.9126    0.2338 O.3       1 <0>        -0.0889
     15 C10         1.1605   -0.5747    0.1210 C.2       1 <0>         0.0377
     16 C11        -0.0463    0.1731   -0.3847 C.3       1 <0>         0.0641
     17 H1         -0.9426   -0.2357    0.0818 H         1 <0>         0.1307
     18 C12        -0.1435    0.0106   -1.8797 C.ar      1 <0>        -0.0775
     19 C13         0.8765    0.4686   -2.6926 C.ar      1 <0>        -0.1117
     20 C14         0.7893    0.3156   -4.0637 C.ar      1 <0>        -0.1279
     21 C15        -0.3221   -0.2872   -4.6225 C.ar      1 <0>        -0.1240
     22 C16        -1.3445   -0.7405   -3.8101 C.ar      1 <0>        -0.1318
     23 C17        -1.2553   -0.5914   -2.4387 C.ar      1 <0>        -0.1047
     24 C18         1.9846   -4.1394    0.7751 C.3       1 <0>         0.0489
     25 O6          1.4890   -4.4850    2.0700 O.3       1 <0>        -0.3417
     26 N1          1.3304    3.5146    0.5951 N.pl3     1 <0>        -0.3811
     27 H2         -4.6073    1.4464   -1.5467 H         1 <0>         0.0851
     28 H3         -4.8232    1.2522    0.2094 H         1 <0>         0.0832
     29 H4         -5.5414    2.6500   -0.6264 H         1 <0>         0.0871
     30 H5         -3.4886    3.3050    0.6005 H         1 <0>         0.0828
     31 H6         -3.2727    3.4993   -1.1556 H         1 <0>         0.0875
     32 H7          4.1164   -2.6581    1.3863 H         1 <0>         0.1771
     33 H8          1.7431    0.9429   -2.2562 H         1 <0>         0.1343
     34 H9          1.5882    0.6695   -4.6984 H         1 <0>         0.1311
     35 H10        -0.3915   -0.4043   -5.6939 H         1 <0>         0.1285
     36 H11        -2.2128   -1.2114   -4.2467 H         1 <0>         0.1292
     37 H12        -2.0541   -0.9455   -1.8039 H         1 <0>         0.1342
     38 H13         1.2878   -4.4902    0.0138 H         1 <0>         0.0850
     39 H14         2.9568   -4.6077    0.6212 H         1 <0>         0.0917
     40 H15         1.3726   -5.4354    2.2059 H         1 <0>         0.2243
     41 H16         0.6272    3.9312    1.1175 H         1 <0>         0.2747
     42 H17         2.0816    4.0436    0.2839 H         1 <0>         0.2329
@<TRIPOS>BOND
     1    1    2 1
     2    1   27 1
     3    1   28 1
     4    1   29 1
     5    2    3 1
     6    2   30 1
     7    2   31 1
     8    3    4 1
     9    4    5 2
    10    4    6 1
    11    6   16 1
    12    6    7 2
    13    7    8 1
    14    7   26 1
    15    8    9 1
    16    9   15 2
    17    9   10 1
    18   10   11 2
    19   10   12 1
    20   12   13 2
    21   12   32 1
    22   13   14 1
    23   13   24 1
    24   14   15 1
    25   15   16 1
    26   16   17 1
    27   16   18 1
    28   18   23 ar
    29   18   19 ar
    30   19   20 ar
    31   19   33 1
    32   20   21 ar
    33   20   34 1
    34   21   22 ar
    35   21   35 1
    36   22   23 ar
    37   22   36 1
    38   23   37 1
    39   24   25 1
    40   24   38 1
    41   24   39 1
    42   25   40 1
    43   26   41 1
    44   26   42 1
@<TRIPOS>MOLECULE
ZINC00809825
   42    44     0     0     0
SMALL
USER_CHARGES

@<TRIPOS>ATOM
      1 C1          3.4291   13.3732   -2.5741 C.3       1 <0>        -0.1692
      2 C2          3.4091   12.3454   -1.4721 C.ar      1 <0>         0.0575
      3 C3          3.3566   12.7413   -0.1444 C.ar      1 <0>        -0.2665
      4 C4          3.3393   11.7642    0.8384 C.ar      1 <0>         0.0084
      5 N1          3.3682   10.4905    0.4827 N.ar      1 <0>        -0.2398
      6 C5          3.4232   10.1453   -0.7958 C.ar      1 <0>        -0.0663
      7 N2          3.4410   11.0551   -1.7599 N.ar      1 <0>        -0.1968
      8 S1          3.4664    8.4367   -1.2244 S.3       1 <0>         0.3036
      9 C6          3.4223    7.6972    0.4270 C.3       1 <0>        -0.2123
     10 C7          3.4515    6.1954    0.3058 C.ar      1 <0>         0.1708
     11 N3          4.6092    5.5577    0.2920 N.ar      1 <0>        -0.3440
     12 C8          4.6391    4.2313    0.1851 C.ar      1 <0>         0.2780
     13 N4          3.5033    3.5483    0.0922 N.ar      1 <0>        -0.3701
     14 C9          2.3416    4.1928    0.1065 C.ar      1 <0>         0.2772
     15 N5          2.3200    5.5200    0.2086 N.ar      1 <0>        -0.3426
     16 N6          1.1584    3.4874    0.0097 N.pl3     1 <0>        -0.2580
     17 C10         1.1756    2.0869    0.0128 C.ar      1 <0>         0.0349
     18 C11         2.1324    1.4057    0.7536 C.ar      1 <0>        -0.0877
     19 C12         2.1488    0.0248    0.7561 C.ar      1 <0>        -0.1455
     20 C13         1.2095   -0.6817    0.0193 C.ar      1 <0>         0.0801
     21 C14         0.2535   -0.0018   -0.7210 C.ar      1 <0>        -0.2038
     22 C15         0.2361    1.3790   -0.7249 C.ar      1 <0>        -0.1216
     23 O1          1.2263   -2.0414    0.0223 O.3       1 <0>        -0.2129
     24 C16         0.2300   -2.7042   -0.7587 C.3       1 <0>        -0.0626
     25 N7          5.8483    3.5664    0.1711 N.pl3     1 <0>        -0.3643
     26 H1          2.4070   13.6034   -2.8748 H         1 <0>         0.0998
     27 H2          3.9156   14.2805   -2.2159 H         1 <0>         0.0876
     28 H3          3.9792   12.9790   -3.4286 H         1 <0>         0.1063
     29 H4          3.3294   13.7885    0.1183 H         1 <0>         0.1456
     30 H5          3.2990   12.0394    1.8820 H         1 <0>         0.1662
     31 H6          2.5091    8.0028    0.9377 H         1 <0>         0.1427
     32 H7          4.2878    8.0325    0.9985 H         1 <0>         0.1427
     33 H8          0.3152    3.9619   -0.0604 H         1 <0>         0.2586
     34 H9          2.8607    1.9556    1.3311 H         1 <0>         0.1618
     35 H10         2.8928   -0.5052    1.3322 H         1 <0>         0.1447
     36 H11        -0.4772   -0.5526   -1.2947 H         1 <0>         0.1369
     37 H12        -0.5081    1.9082   -1.3015 H         1 <0>         0.1326
     38 H13        -0.7599   -2.4228   -0.3996 H         1 <0>         0.0669
     39 H14         0.3339   -2.4123   -1.8038 H         1 <0>         0.0678
     40 H15         0.3560   -3.7832   -0.6686 H         1 <0>         0.1072
     41 H16         5.8694    2.5998    0.0935 H         1 <0>         0.2420
     42 H17         6.6771    4.0657    0.2390 H         1 <0>         0.2440
@<TRIPOS>BOND
     1    1    2 1
     2    1   26 1
     3    1   27 1
     4    1   28 1
     5    2    7 ar
     6    2    3 ar
     7    3    4 ar
     8    3   29 1
     9    4    5 ar
    10    4   30 1
    11    5    6 ar
    12    6    7 ar
    13    6    8 1
    14    8    9 1
    15    9   10 1
    16    9   31 1
    17    9   32 1
    18   10   15 ar
    19   10   11 ar
    20   11   12 ar
    21   12   13 ar
    22   12   25 1
    23   13   14 ar
    24   14   15 ar
    25   14   16 1
    26   16   17 1
    27   16   33 1
    28   17   22 ar
    29   17   18 ar
    30   18   19 ar
    31   18   34 1
    32   19   20 ar
    33   19   35 1
    34   20   21 ar
    35   20   23 1
    36   21   22 ar
    37   21   36 1
    38   22   37 1
    39   23   24 1
    40   24   38 1
    41   24   39 1
    42   24   40 1
    43   25   41 1
    44   25   42 1
@<TRIPOS>MOLECULE
ZINC00819629
   48    50     0     0     0
SMALL
USER_CHARGES

@<TRIPOS>ATOM
      1 C1          6.4320    6.1101   -4.0567 C.3       1 <0>        -0.0437
      2 N1          6.5449    4.7386   -3.5544 N.pl3     1 <0>        -0.8261
      3 C2          5.4757    3.7495   -3.7738 C.3       1 <0>         0.0185
      4 H1          4.7000    4.1857   -4.4031 H         1 <0>         0.1255
      5 C3          6.0618    2.5182   -4.4641 C.3       1 <0>        -0.2035
      6 C4          7.0740    1.8200   -3.5562 C.3       1 <0>         0.0870
      7 H2          6.6034    1.5791   -2.6030 H         1 <0>         0.1153
      8 N2          8.2200    2.7164   -3.3264 N.pl3     1 <0>        -0.8857
      9 S1          7.8893    4.2299   -2.7089 S.o2      1 <0>         2.7607
     10 O1          8.9648    5.0780   -3.0874 O.2       1 <0>        -0.9310
     11 O2          7.4884    4.0514   -1.3574 O.2       1 <0>        -0.8717
     12 C5          7.5514    0.5521   -4.2163 C.ar      1 <0>        -0.1322
     13 C6          8.5159    0.6099   -5.2053 C.ar      1 <0>        -0.0790
     14 C7          8.9593   -0.5514   -5.8080 C.ar      1 <0>        -0.2192
     15 C8          8.4280   -1.7753   -5.4277 C.ar      1 <0>         0.1038
     16 C9          7.4563   -1.8300   -4.4391 C.ar      1 <0>        -0.1562
     17 C10         7.0200   -0.6663   -3.8359 C.ar      1 <0>        -0.0811
     18 O3          8.8585   -2.9186   -6.0230 O.3       1 <0>        -0.2097
     19 C11         9.8611   -2.7866   -7.0327 C.3       1 <0>        -0.0638
     20 C12         4.8817    3.3482   -2.4482 C.2       1 <0>         0.2492
     21 O4          5.2215    3.9193   -1.4336 O.2       1 <0>        -0.2726
     22 N3          3.9729    2.3547   -2.3901 N.am      1 <0>        -0.3328
     23 C13         3.3419    2.0537   -1.1780 C.ar      1 <0>         0.0772
     24 C14         2.9828    0.7434   -0.8874 C.ar      1 <0>        -0.1753
     25 C15         2.3591    0.4465    0.3087 C.ar      1 <0>        -0.0976
     26 C16         2.0967    1.4501    1.2220 C.ar      1 <0>        -0.1702
     27 C17         2.4480    2.7614    0.9346 C.ar      1 <0>         0.0914
     28 C18         3.0737    3.0635   -0.2650 C.ar      1 <0>        -0.1509
     29 O5          2.1838    3.7481    1.8310 O.3       1 <0>        -0.2846
     30 H3          5.9586    6.7363   -3.3004 H         1 <0>         0.0781
     31 H4          7.4257    6.4984   -4.2798 H         1 <0>         0.1069
     32 H5          5.8275    6.1162   -4.9637 H         1 <0>         0.0736
     33 H6          5.2565    1.8240   -4.7045 H         1 <0>         0.1003
     34 H7          6.5574    2.8248   -5.3852 H         1 <0>         0.1135
     35 H8          9.1277    2.4386   -3.5259 H         1 <0>         0.2516
     36 H9          8.9259    1.5633   -5.5041 H         1 <0>         0.1367
     37 H10         9.7156   -0.5062   -6.5776 H         1 <0>         0.1389
     38 H11         7.0410   -2.7815   -4.1416 H         1 <0>         0.1475
     39 H12         6.2636   -0.7084   -3.0662 H         1 <0>         0.1371
     40 H13         9.4827   -2.1603   -7.8406 H         1 <0>         0.0683
     41 H14        10.7512   -2.3270   -6.6031 H         1 <0>         0.0705
     42 H15        10.1140   -3.7717   -7.4247 H         1 <0>         0.1110
     43 H16         3.7562    1.8483   -3.1885 H         1 <0>         0.2287
     44 H17         3.1911   -0.0434   -1.5974 H         1 <0>         0.1266
     45 H18         2.0804   -0.5726    0.5327 H         1 <0>         0.1335
     46 H19         1.6133    1.2142    2.1585 H         1 <0>         0.1399
     47 H20         3.3515    4.0829   -0.4886 H         1 <0>         0.1699
     48 H21         1.3197    4.1658    1.7128 H         1 <0>         0.2255
@<TRIPOS>BOND
     1    1    2 1
     2    1   30 1
     3    1   31 1
     4    1   32 1
     5    2    9 1
     6    2    3 1
     7    3    4 1
     8    3    5 1
     9    3   20 1
    10    5    6 1
    11    5   33 1
    12    5   34 1
    13    6    7 1
    14    6    8 1
    15    6   12 1
    16    8    9 1
    17    8   35 1
    18    9   10 2
    19    9   11 2
    20   12   17 ar
    21   12   13 ar
    22   13   14 ar
    23   13   36 1
    24   14   15 ar
    25   14   37 1
    26   15   16 ar
    27   15   18 1
    28   16   17 ar
    29   16   38 1
    30   17   39 1
    31   18   19 1
    32   19   40 1
    33   19   41 1
    34   19   42 1
    35   20   21 2
    36   20   22 am
    37   22   23 1
    38   22   43 1
    39   23   28 ar
    40   23   24 ar
    41   24   25 ar
    42   24   44 1
    43   25   26 ar
    44   25   45 1
    45   26   27 ar
    46   26   46 1
    47   27   28 ar
    48   27   29 1
    49   28   47 1
    50   29   48 1
@<TRIPOS>MOLECULE
ZINC00819646
   41    43     0     0     0
SMALL
USER_CHARGES

@<TRIPOS>ATOM
      1 C1         -1.0407    2.3026    0.8291 C.3       1 <0>        -0.0355
      2 N1          0.0935    1.4684    0.4240 N.pl3     1 <0>        -0.8364
      3 C2         -0.0919    0.0656    0.0150 C.3       1 <0>         0.0246
      4 H1          0.1793   -0.0463   -1.0348 H         1 <0>         0.1032
      5 C3          0.8013   -0.8316    0.8713 C.3       1 <0>        -0.2089
      6 C4          2.2772   -0.5301    0.6126 C.3       1 <0>         0.1360
      7 H2          2.4872   -0.6273   -0.4526 H         1 <0>         0.1177
      8 N2          2.5764    0.8441    1.0503 N.pl3     1 <0>        -0.8837
      9 S1          1.6494    2.0681    0.3995 S.o2      1 <0>         2.7726
     10 O1          2.0254    2.1947   -0.9650 O.2       1 <0>        -0.9186
     11 O2          1.6916    3.1541    1.3149 O.2       1 <0>        -0.9128
     12 C5          3.1322   -1.5016    1.3847 C.2       1 <0>        -0.0716
     13 C6          3.7209   -2.6023    0.8834 C.2       1 <0>        -0.1967
     14 C7          4.4217   -3.2132    1.9485 C.2       1 <0>        -0.2197
     15 C8          4.2125   -2.4538    3.0389 C.2       1 <0>        -0.0878
     16 O3          3.4308   -1.4185    2.6915 O.3       1 <0>        -0.0485
     17 C9         -1.5337   -0.3284    0.2078 C.2       1 <0>         0.3029
     18 O4         -2.1536    0.0883    1.1634 O.2       1 <0>        -0.3320
     19 N3         -2.1342   -1.1438   -0.6815 N.am      1 <0>        -0.3245
     20 C10        -3.4969   -1.4349   -0.5547 C.ar      1 <0>         0.0674
     21 C11        -4.2829   -1.5929   -1.6893 C.ar      1 <0>        -0.1679
     22 C12        -5.6279   -1.8811   -1.5641 C.ar      1 <0>        -0.0985
     23 C13        -6.1955   -2.0123   -0.3107 C.ar      1 <0>        -0.1666
     24 C14        -5.4153   -1.8551    0.8260 C.ar      1 <0>         0.0879
     25 C15        -4.0638   -1.5718    0.7044 C.ar      1 <0>        -0.1539
     26 O5         -5.9746   -1.9847    2.0578 O.3       1 <0>        -0.2859
     27 H3         -1.2552    2.1364    1.8847 H         1 <0>         0.0953
     28 H4         -0.7949    3.3525    0.6692 H         1 <0>         0.0852
     29 H5         -1.9157    2.0397    0.2346 H         1 <0>         0.0916
     30 H6          0.5789   -0.6594    1.9244 H         1 <0>         0.1317
     31 H7          0.6006   -1.8750    0.6281 H         1 <0>         0.1091
     32 H8          3.2822    1.0291    1.6895 H         1 <0>         0.2608
     33 H9          3.6700   -2.9510   -0.1375 H         1 <0>         0.1575
     34 H10         5.0087   -4.1183    1.8974 H         1 <0>         0.1599
     35 H11         4.6062   -2.6446    4.0264 H         1 <0>         0.2029
     36 H12        -1.6217   -1.5289   -1.4095 H         1 <0>         0.2344
     37 H13        -3.8419   -1.4906   -2.6699 H         1 <0>         0.1319
     38 H14        -6.2373   -2.0040   -2.4472 H         1 <0>         0.1362
     39 H15        -7.2474   -2.2377   -0.2160 H         1 <0>         0.1414
     40 H16        -3.4541   -1.4536    1.5880 H         1 <0>         0.1719
     41 H17        -5.9520   -2.8862    2.4071 H         1 <0>         0.2275
@<TRIPOS>BOND
     1    1    2 1
     2    1   27 1
     3    1   28 1
     4    1   29 1
     5    2    9 1
     6    2    3 1
     7    3    4 1
     8    3    5 1
     9    3   17 1
    10    5    6 1
    11    5   30 1
    12    5   31 1
    13    6    7 1
    14    6    8 1
    15    6   12 1
    16    8    9 1
    17    8   32 1
    18    9   10 2
    19    9   11 2
    20   12   16 1
    21   12   13 2
    22   13   14 1
    23   13   33 1
    24   14   15 2
    25   14   34 1
    26   15   16 1
    27   15   35 1
    28   17   18 2
    29   17   19 am
    30   19   20 1
    31   19   36 1
    32   20   25 ar
    33   20   21 ar
    34   21   22 ar
    35   21   37 1
    36   22   23 ar
    37   22   38 1
    38   23   24 ar
    39   23   39 1
    40   24   25 ar
    41   24   26 1
    42   25   40 1
    43   26   41 1
@<TRIPOS>MOLECULE
ZINC00820214
   43    46     0     0     0
SMALL
USER_CHARGES

@<TRIPOS>ATOM
      1 C1          1.2184   -6.7376    0.2368 C.3       1 <0>        -0.0638
      2 O1          2.0953   -6.2113   -0.7613 O.3       1 <0>        -0.2117
      3 C2          2.3829   -4.8841   -0.6926 C.ar      1 <0>         0.0884
      4 C3          3.2276   -4.3084   -1.6304 C.ar      1 <0>        -0.1423
      5 C4          3.5199   -2.9606   -1.5617 C.ar      1 <0>        -0.1218
      6 C5          2.9678   -2.1812   -0.5532 C.ar      1 <0>         0.0144
      7 C6          2.1263   -2.7596    0.3884 C.ar      1 <0>        -0.0755
      8 C7          1.8310   -4.1065    0.3150 C.ar      1 <0>        -0.2017
      9 N1          3.2638   -0.8155   -0.4825 N.pl3     1 <0>        -0.2690
     10 C8          2.3176    0.0723   -0.0104 C.ar      1 <0>         0.1331
     11 C9          2.6745    1.4845    0.1737 C.ar      1 <0>         0.1332
     12 N2          1.7882    2.3480    0.6234 N.ar      1 <0>        -0.1589
     13 C10         0.5488    1.9324    0.9146 C.ar      1 <0>        -0.1038
     14 C11         0.1884    0.5064    0.7286 C.ar      1 <0>        -0.1040
     15 N3          1.1048   -0.3562    0.2703 N.ar      1 <0>        -0.1593
     16 N4         -1.0678    0.4739    1.1047 N.2       1 <0>        -0.0337
     17 O2         -1.4109    1.5884    1.4405 O.3       1 <0>         0.1425
     18 N5         -0.5654    2.4558    1.3677 N.2       1 <0>        -0.0335
     19 N6          3.9526    1.9112   -0.1273 N.pl3     1 <0>        -0.2696
     20 C12         4.2672    3.2734   -0.0696 C.ar      1 <0>         0.0145
     21 C13         3.3105    4.2224   -0.4062 C.ar      1 <0>        -0.0748
     22 C14         3.6204    5.5665   -0.3443 C.ar      1 <0>        -0.2018
     23 C15         4.8900    5.9689    0.0437 C.ar      1 <0>         0.0888
     24 C16         5.8478    5.0216    0.3751 C.ar      1 <0>        -0.1424
     25 C17         5.5381    3.6772    0.3188 C.ar      1 <0>        -0.1212
     26 O3          5.1958    7.2927    0.0998 O.3       1 <0>        -0.2116
     27 C18         4.1616    8.2130   -0.2548 C.3       1 <0>        -0.0638
     28 H1          1.6562   -6.5835    1.2230 H         1 <0>         0.0680
     29 H2          0.2572   -6.2264    0.1820 H         1 <0>         0.0720
     30 H3          1.0728   -7.8043    0.0665 H         1 <0>         0.1092
     31 H4          3.6570   -4.9146   -2.4143 H         1 <0>         0.1475
     32 H5          4.1772   -2.5125   -2.2921 H         1 <0>         0.1321
     33 H6          1.7002   -2.1553    1.1755 H         1 <0>         0.1622
     34 H7          1.1735   -4.5555    1.0447 H         1 <0>         0.1429
     35 H8          4.1336   -0.4925   -0.7651 H         1 <0>         0.2414
     36 H9          4.6325    1.2667   -0.3789 H         1 <0>         0.2414
     37 H10         2.3234    3.9092   -0.7126 H         1 <0>         0.1608
     38 H11         2.8754    6.3047   -0.6021 H         1 <0>         0.1429
     39 H12         6.8361    5.3358    0.6767 H         1 <0>         0.1476
     40 H13         6.2838    2.9399    0.5772 H         1 <0>         0.1323
     41 H14         3.8474    8.0282   -1.2820 H         1 <0>         0.0679
     42 H15         3.3117    8.0800    0.4147 H         1 <0>         0.0720
     43 H16         4.5369    9.2326   -0.1674 H         1 <0>         0.1092
@<TRIPOS>BOND
     1    1    2 1
     2    1   28 1
     3    1   29 1
     4    1   30 1
     5    2    3 1
     6    3    8 ar
     7    3    4 ar
     8    4    5 ar
     9    4   31 1
    10    5    6 ar
    11    5   32 1
    12    6    7 ar
    13    6    9 1
    14    7    8 ar
    15    7   33 1
    16    8   34 1
    17    9   10 1
    18    9   35 1
    19   10   15 ar
    20   10   11 ar
    21   11   12 ar
    22   11   19 1
    23   12   13 ar
    24   13   18 2
    25   13   14 ar
    26   14   15 ar
    27   14   16 2
    28   16   17 1
    29   17   18 1
    30   19   20 1
    31   19   36 1
    32   20   25 ar
    33   20   21 ar
    34   21   22 ar
    35   21   37 1
    36   22   23 ar
    37   22   38 1
    38   23   24 ar
    39   23   26 1
    40   24   25 ar
    41   24   39 1
    42   25   40 1
    43   26   27 1
    44   27   41 1
    45   27   42 1
    46   27   43 1
@<TRIPOS>MOLECULE
ZINC00822266
   45    47     0     0     0
SMALL
USER_CHARGES

@<TRIPOS>ATOM
      1 C1          5.9990  -10.4614   -0.0099 C.3       1 <0>        -0.0623
      2 O1          6.0518   -9.0334   -0.0201 O.3       1 <0>        -0.2135
      3 C2          4.8640   -8.3716   -0.0056 C.ar      1 <0>         0.0798
      4 C3          3.6733   -9.0861    0.0179 C.ar      1 <0>        -0.1955
      5 C4          2.4614   -8.4222    0.0337 C.ar      1 <0>        -0.1243
      6 C5          2.4263   -7.0377    0.0252 C.ar      1 <0>         0.0739
      7 C6          3.6237   -6.3102    0.0011 C.ar      1 <0>        -0.0371
      8 C7          4.8446   -6.9885   -0.0201 C.ar      1 <0>        -0.1314
      9 C8          3.5949   -4.8369   -0.0081 C.2       1 <0>        -0.1234
     10 N1          2.4583   -4.2098    0.0063 N.2       1 <0>         0.0376
     11 N2          2.4309   -2.8091   -0.0024 N.am      1 <0>        -0.3329
     12 C9          1.2509   -2.1580    0.0126 C.2       1 <0>         0.3614
     13 O2          0.2101   -2.7863    0.0335 O.2       1 <0>        -0.3056
     14 C10         1.2221   -0.6803    0.0034 C.ar      1 <0>        -0.1003
     15 C11         2.4160    0.0437   -0.0211 C.ar      1 <0>        -0.1384
     16 C12         2.3861    1.4230   -0.0301 C.ar      1 <0>        -0.1110
     17 C13         1.1768    2.0931   -0.0148 C.ar      1 <0>        -0.1564
     18 C14        -0.0167    1.3821    0.0096 C.ar      1 <0>         0.0797
     19 C15         0.0022   -0.0041    0.0188 C.ar      1 <0>        -0.1001
     20 N3         -1.2382    2.0653    0.0191 N.am      1 <0>        -0.2854
     21 C16        -1.3711    3.5224    0.1333 C.3       1 <0>        -0.0241
     22 C17        -2.8417    3.7718    0.5353 C.3       1 <0>        -0.1774
     23 C18        -3.5393    2.5093   -0.0217 C.3       1 <0>        -0.1976
     24 C19        -2.4400    1.4716   -0.0809 C.2       1 <0>         0.3101
     25 O3         -2.6174    0.2776   -0.1987 O.2       1 <0>        -0.3270
     26 O4          1.2338   -6.3864    0.0398 O.3       1 <0>        -0.2624
     27 H1          7.0124  -10.8626   -0.0233 H         1 <0>         0.1085
     28 H2          5.4863  -10.7996    0.8905 H         1 <0>         0.0692
     29 H3          5.4581  -10.8113   -0.8892 H         1 <0>         0.0676
     30 H4          3.6945  -10.1658    0.0243 H         1 <0>         0.1376
     31 H5          1.5394   -8.9843    0.0523 H         1 <0>         0.1449
     32 H6          5.7713   -6.4343   -0.0437 H         1 <0>         0.1451
     33 H7          4.5194   -4.2788   -0.0267 H         1 <0>         0.1155
     34 H8          3.2612   -2.3078   -0.0191 H         1 <0>         0.2067
     35 H9          3.3626   -0.4761   -0.0335 H         1 <0>         0.1222
     36 H10         3.3105    1.9812   -0.0494 H         1 <0>         0.1336
     37 H11         1.1599    3.1730   -0.0222 H         1 <0>         0.1319
     38 H12        -0.9244   -0.5585    0.0382 H         1 <0>         0.2086
     39 H13        -0.6998    3.9032    0.9030 H         1 <0>         0.0968
     40 H14        -1.1561    3.9969   -0.8241 H         1 <0>         0.0910
     41 H15        -2.9455    3.8289    1.6189 H         1 <0>         0.1027
     42 H16        -3.2283    4.6735    0.0604 H         1 <0>         0.1016
     43 H17        -4.3364    2.1869    0.6482 H         1 <0>         0.1238
     44 H18        -3.9347    2.7008   -1.0193 H         1 <0>         0.1195
     45 H19         0.8745   -6.2039   -0.8392 H         1 <0>         0.2368
@<TRIPOS>BOND
     1    1    2 1
     2    1   27 1
     3    1   28 1
     4    1   29 1
     5    2    3 1
     6    3    8 ar
     7    3    4 ar
     8    4    5 ar
     9    4   30 1
    10    5    6 ar
    11    5   31 1
    12    6    7 ar
    13    6   26 1
    14    7    8 ar
    15    7    9 1
    16    8   32 1
    17    9   10 2
    18    9   33 1
    19   10   11 1
    20   11   12 am
    21   11   34 1
    22   12   13 2
    23   12   14 1
    24   14   19 ar
    25   14   15 ar
    26   15   16 ar
    27   15   35 1
    28   16   17 ar
    29   16   36 1
    30   17   18 ar
    31   17   37 1
    32   18   19 ar
    33   18   20 1
    34   19   38 1
    35   20   24 am
    36   20   21 1
    37   21   22 1
    38   21   39 1
    39   21   40 1
    40   22   23 1
    41   22   41 1
    42   22   42 1
    43   23   24 1
    44   23   43 1
    45   23   44 1
    46   24   25 2
    47   26   45 1
@<TRIPOS>MOLECULE
ZINC00822279
   45    47     0     0     0
SMALL
USER_CHARGES

@<TRIPOS>ATOM
      1 C1          8.4005   -6.0724    0.8371 C.3       1 <0>        -0.0666
      2 O1          8.4355   -4.6438    0.8355 O.3       1 <0>        -0.1980
      3 C2          7.2533   -3.9974    0.6509 C.ar      1 <0>         0.0748
      4 C3          6.0894   -4.7222    0.4758 C.ar      1 <0>        -0.1926
      5 C4          4.8765   -4.0548    0.2863 C.ar      1 <0>        -0.0649
      6 C5          4.8471   -2.6579    0.2691 C.ar      1 <0>        -0.1673
      7 C6          6.0114   -1.9418    0.4502 C.ar      1 <0>        -0.1180
      8 C7          7.2154   -2.6048    0.6388 C.ar      1 <0>         0.0517
      9 O2          8.3611   -1.8939    0.8116 O.3       1 <0>        -0.2741
     10 C8          3.6321   -4.8225    0.0991 C.2       1 <0>        -0.1226
     11 N1          2.5744   -4.2384   -0.3756 N.2       1 <0>         0.0255
     12 N2          2.7063   -3.1214   -1.2109 N.am      1 <0>        -0.3338
     13 C9          1.6125   -2.4332   -1.5935 C.2       1 <0>         0.3547
     14 O3          0.5111   -2.7818   -1.2138 O.2       1 <0>        -0.3061
     15 C10         1.7516   -1.2548   -2.4747 C.ar      1 <0>        -0.1019
     16 C11         3.0153   -0.8521   -2.9118 C.ar      1 <0>        -0.1405
     17 C12         3.1424    0.2486   -3.7340 C.ar      1 <0>        -0.1108
     18 C13         2.0217    0.9562   -4.1279 C.ar      1 <0>        -0.1558
     19 C14         0.7599    0.5637   -3.6985 C.ar      1 <0>         0.0804
     20 C15         0.6212   -0.5408   -2.8722 C.ar      1 <0>        -0.0996
     21 N3         -0.3717    1.2800   -4.1048 N.am      1 <0>        -0.2856
     22 C16        -0.3289    2.5301   -4.8725 C.3       1 <0>        -0.0243
     23 C17        -1.7287    3.1627   -4.7085 C.3       1 <0>        -0.1774
     24 C18        -2.6041    1.9209   -4.4210 C.3       1 <0>        -0.1975
     25 C19        -1.6376    0.9085   -3.8470 C.2       1 <0>         0.3101
     26 O4         -1.9581   -0.0916   -3.2402 O.2       1 <0>        -0.3266
     27 H1          8.0189   -6.4275   -0.1201 H         1 <0>         0.0663
     28 H2          9.4070   -6.4603    0.9935 H         1 <0>         0.1131
     29 H3          7.7488   -6.4190    1.6392 H         1 <0>         0.0715
     30 H4          6.1174   -5.8018    0.4857 H         1 <0>         0.1434
     31 H5          3.9119   -2.1392    0.1181 H         1 <0>         0.1538
     32 H6          5.9868   -0.8621    0.4408 H         1 <0>         0.1489
     33 H7          8.8268   -1.6922   -0.0115 H         1 <0>         0.2261
     34 H8          3.6003   -5.8708    0.3568 H         1 <0>         0.1837
     35 H9          3.5848   -2.8433   -1.5138 H         1 <0>         0.2247
     36 H10         3.8930   -1.4024   -2.6066 H         1 <0>         0.1237
     37 H11         4.1205    0.5583   -4.0713 H         1 <0>         0.1337
     38 H12         2.1276    1.8169   -4.7716 H         1 <0>         0.1323
     39 H13        -0.3587   -0.8472   -2.5371 H         1 <0>         0.2089
     40 H14         0.4350    3.1947   -4.4689 H         1 <0>         0.0966
     41 H15        -0.1305    2.3206   -5.9236 H         1 <0>         0.0914
     42 H16        -1.7473    3.8561   -3.8677 H         1 <0>         0.1026
     43 H17        -2.0430    3.6581   -5.6271 H         1 <0>         0.1021
     44 H18        -3.3826    2.1622   -3.6973 H         1 <0>         0.1240
     45 H19        -3.0457    1.5437   -5.3434 H         1 <0>         0.1200
@<TRIPOS>BOND
     1    1    2 1
     2    1   27 1
     3    1   28 1
     4    1   29 1
     5    2    3 1
     6    3    8 ar
     7    3    4 ar
     8    4    5 ar
     9    4   30 1
    10    5    6 ar
    11    5   10 1
    12    6    7 ar
    13    6   31 1
    14    7    8 ar
    15    7   32 1
    16    8    9 1
    17    9   33 1
    18   10   11 2
    19   10   34 1
    20   11   12 1
    21   12   13 am
    22   12   35 1
    23   13   14 2
    24   13   15 1
    25   15   20 ar
    26   15   16 ar
    27   16   17 ar
    28   16   36 1
    29   17   18 ar
    30   17   37 1
    31   18   19 ar
    32   18   38 1
    33   19   20 ar
    34   19   21 1
    35   20   39 1
    36   21   25 am
    37   21   22 1
    38   22   23 1
    39   22   40 1
    40   22   41 1
    41   23   24 1
    42   23   42 1
    43   23   43 1
    44   24   25 1
    45   24   44 1
    46   24   45 1
    47   25   26 2
@<TRIPOS>MOLECULE
ZINC00828771
   43    45     0     0     0
SMALL
USER_CHARGES

@<TRIPOS>ATOM
      1 C1         12.1667   -3.5226   -0.5656 C.3       1 <0>        -0.0513
      2 N1         11.1078   -2.6903   -1.1419 N.am      1 <0>        -0.2381
      3 C2         10.1911   -2.0638   -0.3127 C.2       1 <0>         0.1067
      4 C3          9.1960   -1.2788   -0.8862 C.2       1 <0>        -0.2391
      5 C4          9.1488   -1.1440   -2.2846 C.2       1 <0>         0.3976
      6 O1          8.2858   -0.4611   -2.8085 O.2       1 <0>        -0.3821
      7 N2         10.0684   -1.7784   -3.0407 N.am      1 <0>        -0.3333
      8 H1         10.0370   -1.6849   -4.0358 H         1 <0>         0.2845
      9 C5         11.0263   -2.5343   -2.4767 C.2       1 <0>         0.4100
     10 O2         11.8388   -3.0912   -3.1897 O.2       1 <0>        -0.3771
     11 N3          8.4345   -0.7835    0.1643 N.pl3     1 <0>        -0.0704
     12 C6          8.9851   -1.2691    1.3096 C.2       1 <0>        -0.1041
     13 N4         10.0197   -2.0292    1.0093 N.2       1 <0>        -0.2105
     14 S1          8.4040   -0.9371    2.9396 S.3       1 <0>         0.2284
     15 C7          9.6010   -1.8955    3.9013 C.3       1 <0>        -0.3080
     16 C8          7.2680    0.0965    0.0596 C.3       1 <0>        -0.0530
     17 C9          5.9992   -0.7504   -0.0585 C.3       1 <0>         0.0311
     18 H2          5.9462   -1.4444    0.7803 H         1 <0>         0.1434
     19 C10         4.7725    0.1638   -0.0424 C.3       1 <0>        -0.0448
     20 O3          3.5855   -0.6319   -0.0353 O.3       1 <0>        -0.1958
     21 C11         2.3989    0.0304   -0.0208 C.ar      1 <0>         0.0943
     22 C12         1.2070   -0.6796   -0.0132 C.ar      1 <0>        -0.1537
     23 C13         0.0021   -0.0041    0.0020 C.ar      1 <0>        -0.0916
     24 C14        -0.0167    1.3784    0.0096 C.ar      1 <0>        -0.1655
     25 C15         1.1698    2.0883    0.0021 C.ar      1 <0>        -0.0889
     26 C16         2.3774    1.4175   -0.0131 C.ar      1 <0>        -0.2232
     27 O4          6.0294   -1.4854   -1.2836 O.3       1 <0>        -0.3240
     28 H3         11.8151   -4.5508   -0.4808 H         1 <0>         0.0874
     29 H4         13.0451   -3.4910   -1.2102 H         1 <0>         0.1118
     30 H5         12.4279   -3.1452    0.4231 H         1 <0>         0.1011
     31 H6          9.5402   -2.9453    3.6146 H         1 <0>         0.1184
     32 H7         10.6064   -1.5229    3.7050 H         1 <0>         0.1157
     33 H8          9.3773   -1.7953    4.9634 H         1 <0>         0.1179
     34 H9          7.3670    0.7276   -0.8236 H         1 <0>         0.1343
     35 H10         7.2048    0.7235    0.9490 H         1 <0>         0.1135
     36 H11         4.7798    0.7974   -0.9293 H         1 <0>         0.0817
     37 H12         4.7965    0.7884    0.8506 H         1 <0>         0.0787
     38 H13         1.2211   -1.7595   -0.0195 H         1 <0>         0.1456
     39 H14        -0.9261   -0.5563    0.0076 H         1 <0>         0.1344
     40 H15        -0.9597    1.9047    0.0170 H         1 <0>         0.1306
     41 H16         1.1525    3.1682    0.0077 H         1 <0>         0.1295
     42 H17         3.3039    1.9724   -0.0187 H         1 <0>         0.1297
     43 H18         6.0767   -0.9305   -2.0742 H         1 <0>         0.2283
@<TRIPOS>BOND
     1    1    2 1
     2    1   28 1
     3    1   29 1
     4    1   30 1
     5    2    9 am
     6    2    3 1
     7    3   13 1
     8    3    4 2
     9    4    5 1
    10    4   11 1
    11    5    6 2
    12    5    7 am
    13    7    8 1
    14    7    9 am
    15    9   10 2
    16   11   12 1
    17   11   16 1
    18   12   13 2
    19   12   14 1
    20   14   15 1
    21   15   31 1
    22   15   32 1
    23   15   33 1
    24   16   17 1
    25   16   34 1
    26   16   35 1
    27   17   18 1
    28   17   19 1
    29   17   27 1
    30   19   20 1
    31   19   36 1
    32   19   37 1
    33   20   21 1
    34   21   26 ar
    35   21   22 ar
    36   22   23 ar
    37   22   38 1
    38   23   24 ar
    39   23   39 1
    40   24   25 ar
    41   24   40 1
    42   25   26 ar
    43   25   41 1
    44   26   42 1
    45   27   43 1
@<TRIPOS>MOLECULE
ZINC00828771
   44    46     0     0     0
SMALL
USER_CHARGES

@<TRIPOS>ATOM
      1 C1         12.1667   -3.5226   -0.5656 C.3       1 <0>        -0.0700
      2 N1         11.1078   -2.6903   -1.1419 N.am      1 <0>        -0.2454
      3 C2         10.1911   -2.0638   -0.3127 C.2       1 <0>         0.1306
      4 C3          9.1960   -1.2788   -0.8862 C.2       1 <0>        -0.1654
      5 C4          9.1488   -1.1440   -2.2846 C.2       1 <0>         0.3883
      6 O1          8.2858   -0.4611   -2.8085 O.2       1 <0>        -0.3149
      7 N2         10.0684   -1.7784   -3.0407 N.am      1 <0>        -0.3215
      8 H1         10.0370   -1.6849   -4.0358 H         1 <0>         0.3137
      9 C5         11.0263   -2.5343   -2.4767 C.2       1 <0>         0.4095
     10 O2         11.8388   -3.0912   -3.1897 O.2       1 <0>        -0.3021
     11 N3          8.4345   -0.7835    0.1643 N.pl3     1 <0>        -0.0016
     12 C6          8.9851   -1.2691    1.3096 C.cat     1 <0>        -0.0855
     13 S1          8.4040   -0.9371    2.9396 S.3       1 <0>         0.3734
     14 C7          9.6010   -1.8955    3.9013 C.3       1 <0>        -0.3624
     15 C8          7.2680    0.0965    0.0596 C.3       1 <0>        -0.0686
     16 C9          5.9992   -0.7504   -0.0585 C.3       1 <0>         0.0289
     17 H2          5.9462   -1.4444    0.7803 H         1 <0>         0.1417
     18 C10         4.7725    0.1638   -0.0424 C.3       1 <0>        -0.0355
     19 O3          3.5855   -0.6319   -0.0353 O.3       1 <0>        -0.1982
     20 C11         2.3989    0.0304   -0.0208 C.ar      1 <0>         0.0774
     21 C12         1.2070   -0.6796   -0.0132 C.ar      1 <0>        -0.1459
     22 C13         0.0021   -0.0041    0.0020 C.ar      1 <0>        -0.0855
     23 C14        -0.0167    1.3784    0.0096 C.ar      1 <0>        -0.1506
     24 C15         1.1698    2.0883    0.0021 C.ar      1 <0>        -0.0854
     25 C16         2.3774    1.4175   -0.0131 C.ar      1 <0>        -0.2225
     26 O4          6.0294   -1.4854   -1.2836 O.3       1 <0>        -0.3230
     27 H3         11.8151   -4.5508   -0.4808 H         1 <0>         0.1115
     28 H4         13.0451   -3.4910   -1.2102 H         1 <0>         0.1534
     29 H5         12.4279   -3.1452    0.4231 H         1 <0>         0.0785
     30 H6          9.5402   -2.9453    3.6146 H         1 <0>         0.1155
     31 H7         10.6064   -1.5229    3.7050 H         1 <0>         0.1133
     32 H8          9.3773   -1.7953    4.9634 H         1 <0>         0.1752
     33 H9          7.3670    0.7276   -0.8236 H         1 <0>         0.1626
     34 H10         7.2048    0.7235    0.9490 H         1 <0>         0.1349
     35 H11         4.7798    0.7974   -0.9293 H         1 <0>         0.0902
     36 H12         4.7965    0.7884    0.8506 H         1 <0>         0.0821
     37 H13         1.2211   -1.7595   -0.0195 H         1 <0>         0.1471
     38 H14        -0.9261   -0.5563    0.0076 H         1 <0>         0.1441
     39 H15        -0.9597    1.9047    0.0170 H         1 <0>         0.1411
     40 H16         1.1525    3.1682    0.0077 H         1 <0>         0.1367
     41 H17         3.3039    1.9724   -0.0187 H         1 <0>         0.1222
     42 H18         6.0767   -0.9305   -2.0742 H         1 <0>         0.2373
     43 N4         10.0215   -2.0307    1.0114 N.pl3     1 <0>        -0.1361
     44 H19        10.6086   -2.5233    1.6947 H         1 <0>         0.3110
@<TRIPOS>BOND
     1    1    2 1
     2    1   27 1
     3    1   28 1
     4    1   29 1
     5    2    9 am
     6    2    3 1
     7    3    4 2
     8    3   43 1
     9    4    5 1
    10    4   11 1
    11    5    6 2
    12    5    7 am
    13    7    8 1
    14    7    9 am
    15    9   10 2
    16   11   12 1
    17   11   15 1
    18   12   13 1
    19   12   43 2
    20   13   14 1
    21   14   30 1
    22   14   31 1
    23   14   32 1
    24   15   16 1
    25   15   33 1
    26   15   34 1
    27   16   17 1
    28   16   18 1
    29   16   26 1
    30   18   19 1
    31   18   35 1
    32   18   36 1
    33   19   20 1
    34   20   25 ar
    35   20   21 ar
    36   21   22 ar
    37   21   37 1
    38   22   23 ar
    39   22   38 1
    40   23   24 ar
    41   23   39 1
    42   24   25 ar
    43   24   40 1
    44   25   41 1
    45   26   42 1
    46   43   44 1
@<TRIPOS>MOLECULE
ZINC00828772
   43    45     0     0     0
SMALL
USER_CHARGES

@<TRIPOS>ATOM
      1 C1         -1.2569   -0.7532    0.0105 C.3       1 <0>        -0.0513
      2 N1          0.0021   -0.0041    0.0020 N.am      1 <0>        -0.2385
      3 C2         -0.0167    1.3816    0.0096 C.2       1 <0>         0.1111
      4 C3          1.1931    2.0681    0.0018 C.2       1 <0>        -0.2550
      5 C4          2.3954    1.3400   -0.0145 C.2       1 <0>         0.3886
      6 O1          3.4669    1.9207   -0.0224 O.2       1 <0>        -0.3715
      7 N2          2.3508   -0.0083   -0.0209 N.am      1 <0>        -0.3344
      8 H1          3.2044   -0.5291   -0.0319 H         1 <0>         0.2846
      9 C5          1.1765   -0.6624   -0.0127 C.2       1 <0>         0.4095
     10 O2          1.1747   -1.8784   -0.0193 O.2       1 <0>        -0.3769
     11 N3          0.8757    3.4201    0.0121 N.pl3     1 <0>        -0.0733
     12 C6         -0.4821    3.5031    0.0255 C.2       1 <0>        -0.0872
     13 N4         -0.9945    2.2883    0.0186 N.2       1 <0>        -0.2131
     14 S1         -1.4110    5.0003    0.0424 S.3       1 <0>         0.2275
     15 C7         -3.0913    4.3276    0.0549 C.3       1 <0>        -0.3072
     16 C8          1.8202    4.5400    0.0091 C.3       1 <0>        -0.0507
     17 C9          2.1352    4.9376   -1.4344 C.3       1 <0>         0.0272
     18 H2          2.4933    4.0656   -1.9816 H         1 <0>         0.1574
     19 C10         3.2144    6.0222   -1.4407 C.3       1 <0>        -0.0436
     20 O3          3.5919    6.3107   -2.7884 O.3       1 <0>        -0.1958
     21 C11         4.5477    7.2592   -2.9718 C.ar      1 <0>         0.0947
     22 C12         5.1065    7.9032   -1.8774 C.ar      1 <0>        -0.2230
     23 C13         6.0823    8.8627   -2.0662 C.ar      1 <0>        -0.0889
     24 C14         6.4933    9.1901   -3.3451 C.ar      1 <0>        -0.1655
     25 C15         5.9338    8.5537   -4.4378 C.ar      1 <0>        -0.0916
     26 C16         4.9621    7.5892   -4.2540 C.ar      1 <0>        -0.1536
     27 O4          0.9521    5.4392   -2.0593 O.3       1 <0>        -0.3225
     28 H3         -1.5793   -0.9335   -1.0150 H         1 <0>         0.0874
     29 H4         -1.1090   -1.7066    0.5178 H         1 <0>         0.1119
     30 H5         -2.0190   -0.1769    0.5350 H         1 <0>         0.1015
     31 H6         -3.2462    3.7203   -0.8370 H         1 <0>         0.1199
     32 H7         -3.2292    3.7108    0.9429 H         1 <0>         0.1147
     33 H8         -3.8105    5.1466    0.0661 H         1 <0>         0.1173
     34 H9          1.3791    5.3887    0.5317 H         1 <0>         0.1071
     35 H10         2.7396    4.2412    0.5125 H         1 <0>         0.1411
     36 H11         2.8245    6.9254   -0.9713 H         1 <0>         0.0727
     37 H12         4.0851    5.6716   -0.8866 H         1 <0>         0.0898
     38 H13         4.7823    7.6513   -0.8785 H         1 <0>         0.1296
     39 H14         6.5209    9.3611   -1.2144 H         1 <0>         0.1294
     40 H15         7.2529    9.9439   -3.4909 H         1 <0>         0.1305
     41 H16         6.2571    8.8107   -5.4357 H         1 <0>         0.1343
     42 H17         4.5251    7.0927   -5.1078 H         1 <0>         0.1456
     43 H18         0.5772    6.2173   -1.6244 H         1 <0>         0.2101
@<TRIPOS>BOND
     1    1    2 1
     2    1   28 1
     3    1   29 1
     4    1   30 1
     5    2    9 am
     6    2    3 1
     7    3   13 1
     8    3    4 2
     9    4    5 1
    10    4   11 1
    11    5    6 2
    12    5    7 am
    13    7    8 1
    14    7    9 am
    15    9   10 2
    16   11   12 1
    17   11   16 1
    18   12   13 2
    19   12   14 1
    20   14   15 1
    21   15   31 1
    22   15   32 1
    23   15   33 1
    24   16   17 1
    25   16   34 1
    26   16   35 1
    27   17   18 1
    28   17   19 1
    29   17   27 1
    30   19   20 1
    31   19   36 1
    32   19   37 1
    33   20   21 1
    34   21   26 ar
    35   21   22 ar
    36   22   23 ar
    37   22   38 1
    38   23   24 ar
    39   23   39 1
    40   24   25 ar
    41   24   40 1
    42   25   26 ar
    43   25   41 1
    44   26   42 1
    45   27   43 1
@<TRIPOS>MOLECULE
ZINC00828772
   44    46     0     0     0
SMALL
USER_CHARGES

@<TRIPOS>ATOM
      1 C1         -1.2569   -0.7532    0.0105 C.3       1 <0>        -0.0702
      2 N1          0.0021   -0.0041    0.0020 N.am      1 <0>        -0.2456
      3 C2         -0.0167    1.3816    0.0096 C.2       1 <0>         0.1337
      4 C3          1.1931    2.0681    0.0018 C.2       1 <0>        -0.1796
      5 C4          2.3954    1.3400   -0.0145 C.2       1 <0>         0.3786
      6 O1          3.4669    1.9207   -0.0224 O.2       1 <0>        -0.3027
      7 N2          2.3508   -0.0083   -0.0209 N.am      1 <0>        -0.3226
      8 H1          3.2044   -0.5291   -0.0319 H         1 <0>         0.3138
      9 C5          1.1765   -0.6624   -0.0127 C.2       1 <0>         0.4089
     10 O2          1.1747   -1.8784   -0.0193 O.2       1 <0>        -0.3021
     11 N3          0.8757    3.4201    0.0121 N.pl3     1 <0>        -0.0062
     12 C6         -0.4821    3.5031    0.0255 C.cat     1 <0>        -0.0682
     13 S1         -1.4110    5.0003    0.0424 S.3       1 <0>         0.3725
     14 C7         -3.0913    4.3276    0.0549 C.3       1 <0>        -0.3618
     15 C8          1.8202    4.5400    0.0091 C.3       1 <0>        -0.0653
     16 C9          2.1352    4.9376   -1.4344 C.3       1 <0>         0.0241
     17 H2          2.4933    4.0656   -1.9816 H         1 <0>         0.1617
     18 C10         3.2144    6.0222   -1.4407 C.3       1 <0>        -0.0339
     19 O3          3.5919    6.3107   -2.7884 O.3       1 <0>        -0.1981
     20 C11         4.5477    7.2592   -2.9718 C.ar      1 <0>         0.0778
     21 C12         5.1065    7.9032   -1.8774 C.ar      1 <0>        -0.2223
     22 C13         6.0823    8.8627   -2.0662 C.ar      1 <0>        -0.0853
     23 C14         6.4933    9.1901   -3.3451 C.ar      1 <0>        -0.1506
     24 C15         5.9338    8.5537   -4.4378 C.ar      1 <0>        -0.0855
     25 C16         4.9621    7.5892   -4.2540 C.ar      1 <0>        -0.1457
     26 O4          0.9521    5.4392   -2.0593 O.3       1 <0>        -0.3258
     27 H3         -1.5793   -0.9335   -1.0150 H         1 <0>         0.1114
     28 H4         -1.1090   -1.7066    0.5178 H         1 <0>         0.1535
     29 H5         -2.0190   -0.1769    0.5350 H         1 <0>         0.0789
     30 H6         -3.2462    3.7203   -0.8370 H         1 <0>         0.1171
     31 H7         -3.2292    3.7108    0.9429 H         1 <0>         0.1123
     32 H8         -3.8105    5.1466    0.0661 H         1 <0>         0.1747
     33 H9          1.3791    5.3887    0.5317 H         1 <0>         0.1280
     34 H10         2.7396    4.2412    0.5125 H         1 <0>         0.1696
     35 H11         2.8245    6.9254   -0.9713 H         1 <0>         0.0795
     36 H12         4.0851    5.6716   -0.8866 H         1 <0>         0.0954
     37 H13         4.7823    7.6513   -0.8785 H         1 <0>         0.1221
     38 H14         6.5209    9.3611   -1.2144 H         1 <0>         0.1366
     39 H15         7.2529    9.9439   -3.4909 H         1 <0>         0.1410
     40 H16         6.2571    8.8107   -5.4357 H         1 <0>         0.1440
     41 H17         4.5251    7.0927   -5.1078 H         1 <0>         0.1471
     42 H18         0.5772    6.2173   -1.6244 H         1 <0>         0.2160
     43 N4         -0.9976    2.2876    0.0186 N.pl3     1 <0>        -0.1382
     44 H19        -2.0014    2.0716    0.0200 H         1 <0>         0.3113
@<TRIPOS>BOND
     1    1    2 1
     2    1   27 1
     3    1   28 1
     4    1   29 1
     5    2    9 am
     6    2    3 1
     7    3    4 2
     8    3   43 1
     9    4    5 1
    10    4   11 1
    11    5    6 2
    12    5    7 am
    13    7    8 1
    14    7    9 am
    15    9   10 2
    16   11   12 1
    17   11   15 1
    18   12   13 1
    19   12   43 2
    20   13   14 1
    21   14   30 1
    22   14   31 1
    23   14   32 1
    24   15   16 1
    25   15   33 1
    26   15   34 1
    27   16   17 1
    28   16   18 1
    29   16   26 1
    30   18   19 1
    31   18   35 1
    32   18   36 1
    33   19   20 1
    34   20   25 ar
    35   20   21 ar
    36   21   22 ar
    37   21   37 1
    38   22   23 ar
    39   22   38 1
    40   23   24 ar
    41   23   39 1
    42   24   25 ar
    43   24   40 1
    44   25   41 1
    45   26   42 1
    46   43   44 1
@<TRIPOS>MOLECULE
ZINC00833420
   44    47     0     0     0
SMALL
USER_CHARGES

@<TRIPOS>ATOM
      1 C1         -5.7789    3.8145    0.0504 C.ar      1 <0>        -0.1168
      2 C2         -5.2357    3.4011   -1.1516 C.ar      1 <0>        -0.1322
      3 C3         -4.1382    2.5606   -1.1615 C.ar      1 <0>        -0.1004
      4 C4         -3.5838    2.1339    0.0308 C.ar      1 <0>        -0.0914
      5 C5         -4.1302    2.5431    1.2328 C.ar      1 <0>        -0.1012
      6 C6         -5.2250    3.3870    1.2426 C.ar      1 <0>        -0.1325
      7 C7         -2.3873    1.2176    0.0201 C.3       1 <0>         0.0311
      8 O1         -1.1900    1.9977    0.0186 O.3       1 <0>        -0.1620
      9 C8         -0.0159    1.3221    0.0093 C.ar      1 <0>         0.2887
     10 C9          1.2070    2.0109    0.0013 C.ar      1 <0>        -0.2149
     11 C10         2.3948    1.2600   -0.0136 C.ar      1 <0>         0.1186
     12 N1          2.3217   -0.0668   -0.0200 N.ar      1 <0>        -0.3242
     13 C11         1.1471   -0.6753   -0.0125 C.ar      1 <0>         0.2782
     14 N2          0.0021   -0.0041    0.0020 N.ar      1 <0>        -0.3635
     15 N3          1.1109   -2.0600   -0.0196 N.pl3     1 <0>        -0.3768
     16 N4          3.4194    2.1725   -0.0177 N.pl3     1 <0>        -0.1748
     17 C12         2.8593    3.4164   -0.0056 C.2       1 <0>        -0.0341
     18 N5          1.5621    3.3197    0.0055 N.2       1 <0>        -0.1270
     19 C13         4.8521    1.8670   -0.0327 C.3       1 <0>         0.1678
     20 H1          5.0479    0.9801   -0.6354 H         1 <0>         0.1359
     21 C14         5.3844    1.6748    1.4102 C.3       1 <0>        -0.2342
     22 C15         6.8882    2.0043    1.2478 C.3       1 <0>         0.0248
     23 H2          7.2446    2.5886    2.0962 H         1 <0>         0.1117
     24 C16         6.9546    2.8375   -0.0469 C.3       1 <0>         0.0044
     25 H3          7.5526    2.3152   -0.7936 H         1 <0>         0.1266
     26 O2          5.6071    2.9942   -0.5266 O.3       1 <0>        -0.2560
     27 C17         7.5665    4.2086    0.2476 C.3       1 <0>         0.0017
     28 O3          7.7314    4.9292   -0.9753 O.3       1 <0>        -0.3389
     29 F1          7.6352    0.8292    1.1126 F         1 <0>        -0.1599
     30 H4         -6.6359    4.4717    0.0580 H         1 <0>         0.1293
     31 H5         -5.6684    3.7351   -2.0831 H         1 <0>         0.1311
     32 H6         -3.7138    2.2376   -2.1006 H         1 <0>         0.1340
     33 H7         -3.6998    2.2061    2.1642 H         1 <0>         0.1330
     34 H8         -5.6493    3.7103    2.1817 H         1 <0>         0.1306
     35 H9         -2.4155    0.5936   -0.8732 H         1 <0>         0.0945
     36 H10        -2.4070    0.5840    0.9067 H         1 <0>         0.0936
     37 H11         0.2585   -2.5229   -0.0140 H         1 <0>         0.2397
     38 H12         1.9380   -2.5667   -0.0302 H         1 <0>         0.2399
     39 H13         3.4115    4.3446   -0.0050 H         1 <0>         0.2186
     40 H14         4.9054    2.3721    2.0976 H         1 <0>         0.1187
     41 H15         5.2447    0.6461    1.7425 H         1 <0>         0.1315
     42 H16         6.9061    4.7661    0.9118 H         1 <0>         0.0697
     43 H17         8.5372    4.0780    0.7261 H         1 <0>         0.0714
     44 H18         8.1155    5.8097   -0.8642 H         1 <0>         0.2157
@<TRIPOS>BOND
     1    1    6 ar
     2    1    2 ar
     3    1   30 1
     4    2    3 ar
     5    2   31 1
     6    3    4 ar
     7    3   32 1
     8    4    5 ar
     9    4    7 1
    10    5    6 ar
    11    5   33 1
    12    6   34 1
    13    7    8 1
    14    7   35 1
    15    7   36 1
    16    8    9 1
    17    9   14 ar
    18    9   10 ar
    19   10   18 1
    20   10   11 ar
    21   11   12 ar
    22   11   16 1
    23   12   13 ar
    24   13   14 ar
    25   13   15 1
    26   15   37 1
    27   15   38 1
    28   16   17 1
    29   16   19 1
    30   17   18 2
    31   17   39 1
    32   19   20 1
    33   19   26 1
    34   19   21 1
    35   21   22 1
    36   21   40 1
    37   21   41 1
    38   22   23 1
    39   22   24 1
    40   22   29 1
    41   24   25 1
    42   24   26 1
    43   24   27 1
    44   27   28 1
    45   27   42 1
    46   27   43 1
    47   28   44 1
@<TRIPOS>MOLECULE
ZINC00835013
   41    43     0     0     0
SMALL
USER_CHARGES

@<TRIPOS>ATOM
      1 C1         -6.9370    5.0045   -0.3981 C.3       1 <0>        -0.0506
      2 O1         -5.7912    4.1135   -0.4392 O.3       1 <0>        -0.2671
      3 C2         -4.6282    4.5897    0.0469 C.2       1 <0>         0.3516
      4 O2         -4.5730    5.7186    0.4930 O.2       1 <0>        -0.3655
      5 C3         -3.4225    3.7408    0.0375 C.ar      1 <0>        -0.1341
      6 C4         -2.2149    4.2332    0.5415 C.ar      1 <0>        -0.0456
      7 C5         -1.0913    3.4382    0.5308 C.ar      1 <0>        -0.1811
      8 C6         -1.1563    2.1458    0.0191 C.ar      1 <0>         0.0955
      9 C7         -2.3552    1.6543   -0.4882 C.ar      1 <0>        -0.1477
     10 C8         -3.4840    2.4418   -0.4758 C.ar      1 <0>        -0.0578
     11 N1         -0.0162    1.3436    0.0094 N.am      1 <0>        -0.3263
     12 C9         -0.1284    0.0110    0.1775 C.2       1 <0>         0.3061
     13 O3         -1.2075   -0.4790    0.4347 O.2       1 <0>        -0.3328
     14 C10         1.0871   -0.8701    0.0457 C.3       1 <0>        -0.1839
     15 C11         0.6880   -2.3281    0.2816 C.3       1 <0>        -0.2216
     16 H1         -0.1153   -2.6032   -0.4019 H         1 <0>         0.1806
     17 C12         1.8795   -3.2221    0.0553 C.2       1 <0>         0.3064
     18 O4          1.9855   -3.7820   -1.0155 O.2       1 <0>        -0.3417
     19 N2          2.8197   -3.4276    0.9718 N.am      1 <0>        -0.3023
     20 C13         2.8114   -2.9720    2.2868 C.ar      1 <0>         0.0629
     21 C14         4.0015   -2.9591    3.0080 C.ar      1 <0>        -0.1620
     22 C15         4.0232   -2.4929    4.3074 C.ar      1 <0>        -0.0974
     23 C16         2.8645   -2.0347    4.9075 C.ar      1 <0>        -0.1441
     24 C17         1.6738   -2.0459    4.2044 C.ar      1 <0>        -0.0715
     25 C18         1.6462   -2.5145    2.9013 C.ar      1 <0>        -0.2533
     26 S1          0.1281   -2.5385    1.9995 S.3       1 <0>         0.2277
     27 H2         -7.8060    4.4986   -0.8188 H         1 <0>         0.1028
     28 H3         -7.1436    5.2831    0.6352 H         1 <0>         0.0830
     29 H4         -6.7214    5.9007   -0.9799 H         1 <0>         0.0820
     30 H5         -2.1638    5.2361    0.9391 H         1 <0>         0.1573
     31 H6         -0.1583    3.8178    0.9203 H         1 <0>         0.1363
     32 H7         -2.4010    0.6523   -0.8886 H         1 <0>         0.1635
     33 H8         -4.4153    2.0581   -0.8656 H         1 <0>         0.1536
     34 H9          0.8574    1.7439   -0.1222 H         1 <0>         0.2350
     35 H10         1.5050   -0.7652   -0.9555 H         1 <0>         0.1208
     36 H11         1.8326   -0.5734    0.7835 H         1 <0>         0.1147
     37 H12         3.5904   -3.9480    0.6960 H         1 <0>         0.2461
     38 H13         4.9120   -3.3154    2.5493 H         1 <0>         0.1358
     39 H14         4.9516   -2.4862    4.8592 H         1 <0>         0.1363
     40 H15         2.8896   -1.6686    5.9232 H         1 <0>         0.1387
     41 H16         0.7670   -1.6894    4.6704 H         1 <0>         0.1498
@<TRIPOS>BOND
     1    1    2 1
     2    1   27 1
     3    1   28 1
     4    1   29 1
     5    2    3 1
     6    3    4 2
     7    3    5 1
     8    5   10 ar
     9    5    6 ar
    10    6    7 ar
    11    6   30 1
    12    7    8 ar
    13    7   31 1
    14    8    9 ar
    15    8   11 1
    16    9   10 ar
    17    9   32 1
    18   10   33 1
    19   11   12 am
    20   11   34 1
    21   12   13 2
    22   12   14 1
    23   14   15 1
    24   14   35 1
    25   14   36 1
    26   15   16 1
    27   15   26 1
    28   15   17 1
    29   17   18 2
    30   17   19 am
    31   19   20 1
    32   19   37 1
    33   20   25 ar
    34   20   21 ar
    35   21   22 ar
    36   21   38 1
    37   22   23 ar
    38   22   39 1
    39   23   24 ar
    40   23   40 1
    41   24   25 ar
    42   24   41 1
    43   25   26 1
@<TRIPOS>MOLECULE
ZINC00835015
   41    43     0     0     0
SMALL
USER_CHARGES

@<TRIPOS>ATOM
      1 C1          4.4411   12.2954   -5.8008 C.3       1 <0>        -0.0506
      2 O1          4.2360   10.9714   -5.2412 O.3       1 <0>        -0.2673
      3 C2          4.3826    9.9245   -6.0768 C.2       1 <0>         0.3515
      4 O2          4.6739   10.1129   -7.2413 O.2       1 <0>        -0.3653
      5 C3          4.1896    8.5503   -5.5781 C.ar      1 <0>        -0.1341
      6 C4          4.3413    7.4629   -6.4437 C.ar      1 <0>        -0.0458
      7 C5          4.1599    6.1816   -5.9748 C.ar      1 <0>        -0.1812
      8 C6          3.8259    5.9678   -4.6410 C.ar      1 <0>         0.0942
      9 C7          3.6685    7.0479   -3.7780 C.ar      1 <0>        -0.1479
     10 C8          3.8540    8.3317   -4.2386 C.ar      1 <0>        -0.0586
     11 N1          3.6430    4.6686   -4.1696 N.am      1 <0>        -0.3262
     12 C9          3.9827    4.3572   -2.9030 C.2       1 <0>         0.3060
     13 O3          4.5351    5.1797   -2.2037 O.2       1 <0>        -0.3330
     14 C10         3.6761    2.9869   -2.3559 C.3       1 <0>        -0.1838
     15 C11         4.1616    2.8956   -0.9078 C.3       1 <0>        -0.2205
     16 H1          5.2215    3.1455   -0.8591 H         1 <0>         0.1824
     17 C12         3.9453    1.4982   -0.3873 C.2       1 <0>         0.3064
     18 O4          4.8837    0.7296   -0.3891 O.2       1 <0>        -0.3406
     19 N2          2.7757    1.0677    0.0736 N.am      1 <0>        -0.3023
     20 C13         1.6239    1.8265    0.2577 C.ar      1 <0>         0.0633
     21 C14         0.4018    1.1830    0.4204 C.ar      1 <0>        -0.1612
     22 C15        -0.7534    1.9158    0.6064 C.ar      1 <0>        -0.0971
     23 C16        -0.7083    3.2976    0.6434 C.ar      1 <0>        -0.1435
     24 C17         0.5002    3.9514    0.4883 C.ar      1 <0>        -0.0727
     25 C18         1.6620    3.2207    0.3019 C.ar      1 <0>        -0.2529
     26 S1          3.2121    4.0488    0.1305 S.3       1 <0>         0.2228
     27 H2          4.2929   13.0453   -5.0238 H         1 <0>         0.1027
     28 H3          5.4561   12.3718   -6.1907 H         1 <0>         0.0831
     29 H4          3.7282   12.4630   -6.6082 H         1 <0>         0.0818
     30 H5          4.6002    7.6282   -7.4791 H         1 <0>         0.1574
     31 H6          4.2766    5.3412   -6.6430 H         1 <0>         0.1363
     32 H7          3.4050    6.8785   -2.7444 H         1 <0>         0.1668
     33 H8          3.7359    9.1693   -3.5671 H         1 <0>         0.1534
     34 H9          3.2712    3.9888   -4.7531 H         1 <0>         0.2350
     35 H10         4.1842    2.2334   -2.9576 H         1 <0>         0.1201
     36 H11         2.6004    2.8144   -2.3899 H         1 <0>         0.1156
     37 H12         2.7190    0.1276    0.3058 H         1 <0>         0.2461
     38 H13         0.3556    0.1042    0.3968 H         1 <0>         0.1359
     39 H14        -1.6980    1.4065    0.7278 H         1 <0>         0.1366
     40 H15        -1.6156    3.8649    0.7891 H         1 <0>         0.1386
     41 H16         0.5383    5.0305    0.5129 H         1 <0>         0.1483
@<TRIPOS>BOND
     1    1    2 1
     2    1   27 1
     3    1   28 1
     4    1   29 1
     5    2    3 1
     6    3    4 2
     7    3    5 1
     8    5   10 ar
     9    5    6 ar
    10    6    7 ar
    11    6   30 1
    12    7    8 ar
    13    7   31 1
    14    8    9 ar
    15    8   11 1
    16    9   10 ar
    17    9   32 1
    18   10   33 1
    19   11   12 am
    20   11   34 1
    21   12   13 2
    22   12   14 1
    23   14   15 1
    24   14   35 1
    25   14   36 1
    26   15   16 1
    27   15   26 1
    28   15   17 1
    29   17   18 2
    30   17   19 am
    31   19   20 1
    32   19   37 1
    33   20   25 ar
    34   20   21 ar
    35   21   22 ar
    36   21   38 1
    37   22   23 ar
    38   22   39 1
    39   23   24 ar
    40   23   40 1
    41   24   25 ar
    42   24   41 1
    43   25   26 1
@<TRIPOS>MOLECULE
ZINC00835772
   42    44     0     0     0
SMALL
USER_CHARGES

@<TRIPOS>ATOM
      1 C1          2.2510    4.1868    0.8577 C.ar      1 <0>        -0.1248
      2 C2          2.9404    4.2865   -0.3334 C.ar      1 <0>        -0.1235
      3 C3          2.8962    3.2386   -1.2544 C.ar      1 <0>        -0.1095
      4 C4          2.1538    2.0934   -0.9654 C.ar      1 <0>        -0.1022
      5 C5          1.4657    2.0038    0.2329 C.ar      1 <0>         0.0653
      6 C6          1.5113    3.0534    1.1405 C.ar      1 <0>        -0.1356
      7 O1          0.7408    0.8901    0.5183 O.3       1 <0>        -0.2856
      8 C7          3.6333    3.3421   -2.5320 C.2       1 <0>         0.3500
      9 O2          3.1154    2.9645   -3.5648 O.2       1 <0>        -0.3562
     10 N1          4.8794    3.8552   -2.5514 N.am      1 <0>        -0.3482
     11 C8          5.5684    4.1942   -1.2983 C.3       1 <0>        -0.0428
     12 C9          6.9159    3.4531   -1.2692 C.3       1 <0>        -0.0519
     13 N2          7.6077    3.6893   -2.5441 N.am      1 <0>        -0.3470
     14 C10         6.9166    3.3555   -3.7975 C.3       1 <0>        -0.0269
     15 C11         5.5713    4.0914   -3.8263 C.3       1 <0>        -0.0275
     16 C12         8.8535    4.2032   -2.5636 C.2       1 <0>         0.3507
     17 O3          9.3729    4.4979   -3.6223 O.2       1 <0>        -0.3586
     18 C13         9.5883    4.4086   -1.2971 C.ar      1 <0>        -0.1106
     19 C14         9.3889    3.5400   -0.2228 C.ar      1 <0>        -0.1304
     20 C15        10.0803    3.7314    0.9559 C.ar      1 <0>        -0.1257
     21 C16        10.9633    4.7881    1.0807 C.ar      1 <0>        -0.1343
     22 C17        11.1639    5.6606    0.0196 C.ar      1 <0>         0.0648
     23 C18        10.4792    5.4746   -1.1696 C.ar      1 <0>        -0.0980
     24 O4         12.0324    6.6981    0.1481 O.3       1 <0>        -0.2857
     25 H1          2.2857    4.9984    1.5693 H         1 <0>         0.1368
     26 H2          3.5136    5.1751   -0.5531 H         1 <0>         0.1387
     27 H3          2.1161    1.2791   -1.6739 H         1 <0>         0.1602
     28 H4          0.9701    2.9827    2.0724 H         1 <0>         0.1433
     29 H5          1.2404    0.2035    0.9809 H         1 <0>         0.2283
     30 H6          5.7384    5.2699   -1.2537 H         1 <0>         0.0909
     31 H7          4.9592    3.8822   -0.4499 H         1 <0>         0.1157
     32 H8          6.7456    2.3845   -1.1379 H         1 <0>         0.0909
     33 H9          7.5245    3.8302   -0.4474 H         1 <0>         0.1236
     34 H10         6.7464    2.2800   -3.8462 H         1 <0>         0.0928
     35 H11         7.5232    3.6687   -4.6472 H         1 <0>         0.1330
     36 H12         4.9641    3.7115   -4.6479 H         1 <0>         0.1328
     37 H13         5.7389    5.1602   -3.9590 H         1 <0>         0.0928
     38 H14         8.6966    2.7162   -0.3154 H         1 <0>         0.1428
     39 H15         9.9282    3.0563    1.7850 H         1 <0>         0.1364
     40 H16        11.4986    4.9354    2.0070 H         1 <0>         0.1433
     41 H17        10.6347    6.1524   -1.9959 H         1 <0>         0.1629
     42 H18        11.6281    7.5103    0.4828 H         1 <0>         0.2288
@<TRIPOS>BOND
     1    1    6 ar
     2    1    2 ar
     3    1   25 1
     4    2    3 ar
     5    2   26 1
     6    3    4 ar
     7    3    8 1
     8    4    5 ar
     9    4   27 1
    10    5    6 ar
    11    5    7 1
    12    6   28 1
    13    7   29 1
    14    8    9 2
    15    8   10 am
    16   10   15 1
    17   10   11 1
    18   11   12 1
    19   11   30 1
    20   11   31 1
    21   12   13 1
    22   12   32 1
    23   12   33 1
    24   13   14 1
    25   13   16 am
    26   14   15 1
    27   14   34 1
    28   14   35 1
    29   15   36 1
    30   15   37 1
    31   16   17 2
    32   16   18 1
    33   18   23 ar
    34   18   19 ar
    35   19   20 ar
    36   19   38 1
    37   20   21 ar
    38   20   39 1
    39   21   22 ar
    40   21   40 1
    41   22   23 ar
    42   22   24 1
    43   23   41 1
    44   24   42 1
@<TRIPOS>MOLECULE
ZINC00837458
   42    44     0     0     0
SMALL
USER_CHARGES

@<TRIPOS>ATOM
      1 C1         -0.1596    9.4624    0.3700 C.ar      1 <0>        -0.1585
      2 C2         -0.1463    8.0872    0.2587 C.ar      1 <0>        -0.0556
      3 C3          1.0703    7.4033    0.2429 C.ar      1 <0>        -0.1519
      4 C4          2.2662    8.1163    0.3456 C.ar      1 <0>         0.0343
      5 C5          2.2389    9.4913    0.4511 C.ar      1 <0>        -0.7688
      6 C6          1.0292   10.1633    0.4657 C.ar      1 <0>        -0.0051
      7 S1          3.7473   10.3937    0.5741 S.o2      1 <0>         2.7791
      8 O1          4.7554    9.5813   -0.0115 O.2       1 <0>        -0.9040
      9 O2          3.4707   11.7111    0.1191 O.2       1 <0>        -0.9108
     10 N1          4.1144   10.5164    2.1843 N.pl3     1 <0>        -0.8501
     11 C7          3.6934   11.6048    3.0786 C.3       1 <0>         0.0016
     12 C8          4.2874   11.3088    4.4717 C.3       1 <0>        -0.1711
     13 C9          5.4830   10.3750    4.1462 C.3       1 <0>        -0.1688
     14 C10         4.9228    9.5557    2.9568 C.3       1 <0>        -0.0055
     15 C11         1.0922    5.9301    0.1239 C.2       1 <0>         0.3473
     16 O3          2.1533    5.3372    0.1103 O.2       1 <0>        -0.3425
     17 N2         -0.0642    5.2443    0.0304 N.am      1 <0>        -0.3247
     18 C12        -0.0487    3.8461    0.0154 C.ar      1 <0>         0.0720
     19 C13        -1.0733    3.1324    0.6249 C.ar      1 <0>        -0.1720
     20 C14        -1.0578    1.7514    0.6101 C.ar      1 <0>        -0.0994
     21 C15        -0.0236    1.0758   -0.0099 C.ar      1 <0>        -0.1693
     22 C16         1.0055    1.7833   -0.6149 C.ar      1 <0>         0.0879
     23 C17         0.9903    3.1694   -0.6079 C.ar      1 <0>        -0.1526
     24 O4          2.0249    1.1176   -1.2188 O.3       1 <0>        -0.2862
     25 H1         -1.1003    9.9928    0.3827 H         1 <0>         0.1408
     26 H2         -1.0751    7.5412    0.1844 H         1 <0>         0.1275
     27 H3          3.2108    7.5927    0.3388 H         1 <0>         0.1770
     28 H4          1.0132   11.2397    0.5526 H         1 <0>         0.1534
     29 H5          4.0716   12.5571    2.7070 H         1 <0>         0.0956
     30 H6          2.6056   11.6342    3.1401 H         1 <0>         0.0734
     31 H7          3.5608   10.7989    5.1044 H         1 <0>         0.0913
     32 H8          4.6336   12.2282    4.9440 H         1 <0>         0.0955
     33 H9          5.7146    9.7276    4.9920 H         1 <0>         0.0955
     34 H10         6.3582   10.9511    3.8460 H         1 <0>         0.0987
     35 H11         4.2981    8.7393    3.3193 H         1 <0>         0.0792
     36 H12         5.7380    9.1682    2.3458 H         1 <0>         0.1081
     37 H13        -0.9073    5.7206   -0.0265 H         1 <0>         0.2325
     38 H14        -1.8824    3.6578    1.1103 H         1 <0>         0.1289
     39 H15        -1.8552    1.1983    1.0841 H         1 <0>         0.1341
     40 H16        -0.0141   -0.0041   -0.0195 H         1 <0>         0.1400
     41 H17         1.7879    3.7217   -1.0825 H         1 <0>         0.1760
     42 H18         1.8709    0.9275   -2.1543 H         1 <0>         0.2272
@<TRIPOS>BOND
     1    1    6 ar
     2    1    2 ar
     3    1   25 1
     4    2    3 ar
     5    2   26 1
     6    3    4 ar
     7    3   15 1
     8    4    5 ar
     9    4   27 1
    10    5    6 ar
    11    5    7 1
    12    6   28 1
    13    7    8 2
    14    7    9 2
    15    7   10 1
    16   10   14 1
    17   10   11 1
    18   11   12 1
    19   11   29 1
    20   11   30 1
    21   12   13 1
    22   12   31 1
    23   12   32 1
    24   13   14 1
    25   13   33 1
    26   13   34 1
    27   14   35 1
    28   14   36 1
    29   15   16 2
    30   15   17 am
    31   17   18 1
    32   17   37 1
    33   18   23 ar
    34   18   19 ar
    35   19   20 ar
    36   19   38 1
    37   20   21 ar
    38   20   39 1
    39   21   22 ar
    40   21   40 1
    41   22   23 ar
    42   22   24 1
    43   23   41 1
    44   24   42 1
@<TRIPOS>MOLECULE
ZINC00837460
   48    50     0     0     0
SMALL
USER_CHARGES

@<TRIPOS>ATOM
      1 C1         -0.1596    9.4624    0.3700 C.ar      1 <0>        -0.1579
      2 C2         -0.1463    8.0872    0.2587 C.ar      1 <0>        -0.0559
      3 C3          1.0703    7.4033    0.2429 C.ar      1 <0>        -0.1514
      4 C4          2.2662    8.1163    0.3456 C.ar      1 <0>         0.0337
      5 C5          2.2389    9.4913    0.4511 C.ar      1 <0>        -0.7669
      6 C6          1.0292   10.1633    0.4657 C.ar      1 <0>        -0.0062
      7 S1          3.7473   10.3937    0.5741 S.o2      1 <0>         2.7576
      8 O1          4.7554    9.5813   -0.0115 O.2       1 <0>        -0.9096
      9 O2          3.4707   11.7111    0.1191 O.2       1 <0>        -0.9141
     10 N1          4.1144   10.5164    2.1843 N.pl3     1 <0>        -0.8292
     11 C7          3.6184   11.6558    2.9233 C.3       1 <0>         0.0034
     12 C8          4.6326   12.8160    2.8431 C.3       1 <0>        -0.1780
     13 C9          5.8262   12.5066    3.6451 C.3       1 <0>        -0.1579
     14 C10         6.6068   11.2866    3.1654 C.3       1 <0>        -0.1531
     15 C11         5.9997   10.0394    3.7590 C.3       1 <0>        -0.1659
     16 C12         4.9395    9.4611    2.8043 C.3       1 <0>        -0.0101
     17 C13         1.0922    5.9301    0.1239 C.2       1 <0>         0.3474
     18 O3          2.1533    5.3372    0.1103 O.2       1 <0>        -0.3428
     19 N2         -0.0642    5.2443    0.0304 N.am      1 <0>        -0.3246
     20 C14        -0.0487    3.8461    0.0154 C.ar      1 <0>         0.0719
     21 C15        -1.0733    3.1324    0.6249 C.ar      1 <0>        -0.1719
     22 C16        -1.0578    1.7514    0.6101 C.ar      1 <0>        -0.0993
     23 C17        -0.0236    1.0758   -0.0099 C.ar      1 <0>        -0.1692
     24 C18         1.0055    1.7833   -0.6149 C.ar      1 <0>         0.0879
     25 C19         0.9903    3.1694   -0.6079 C.ar      1 <0>        -0.1527
     26 O4          2.0249    1.1176   -1.2188 O.3       1 <0>        -0.2862
     27 H1         -1.1003    9.9928    0.3827 H         1 <0>         0.1408
     28 H2         -1.0751    7.5412    0.1844 H         1 <0>         0.1277
     29 H3          3.2108    7.5927    0.3388 H         1 <0>         0.1764
     30 H4          1.0132   11.2397    0.5526 H         1 <0>         0.1527
     31 H5          2.6690   11.9797    2.4968 H         1 <0>         0.0862
     32 H6          3.4705   11.3755    3.9662 H         1 <0>         0.0907
     33 H7          4.1703   13.7278    3.2213 H         1 <0>         0.0885
     34 H8          4.9252   12.9671    1.8041 H         1 <0>         0.1034
     35 H9          5.5159   12.3355    4.6759 H         1 <0>         0.0745
     36 H10         6.4888   13.3718    3.6235 H         1 <0>         0.0794
     37 H11         7.6460   11.3718    3.4829 H         1 <0>         0.0826
     38 H12         6.5622   11.2305    2.0777 H         1 <0>         0.0923
     39 H13         5.5322   10.2837    4.7129 H         1 <0>         0.0834
     40 H14         6.7824    9.2984    3.9215 H         1 <0>         0.0914
     41 H15         4.2903    8.7868    3.3629 H         1 <0>         0.0745
     42 H16         5.4424    8.8976    2.0184 H         1 <0>         0.1179
     43 H17        -0.9073    5.7206   -0.0265 H         1 <0>         0.2325
     44 H18        -1.8824    3.6578    1.1103 H         1 <0>         0.1289
     45 H19        -1.8552    1.1983    1.0841 H         1 <0>         0.1342
     46 H20        -0.0141   -0.0041   -0.0195 H         1 <0>         0.1401
     47 H21         1.7879    3.7217   -1.0825 H         1 <0>         0.1759
     48 H22         1.8709    0.9275   -2.1543 H         1 <0>         0.2272
@<TRIPOS>BOND
     1    1    6 ar
     2    1    2 ar
     3    1   27 1
     4    2    3 ar
     5    2   28 1
     6    3    4 ar
     7    3   17 1
     8    4    5 ar
     9    4   29 1
    10    5    6 ar
    11    5    7 1
    12    6   30 1
    13    7    8 2
    14    7    9 2
    15    7   10 1
    16   10   16 1
    17   10   11 1
    18   11   12 1
    19   11   31 1
    20   11   32 1
    21   12   13 1
    22   12   33 1
    23   12   34 1
    24   13   14 1
    25   13   35 1
    26   13   36 1
    27   14   15 1
    28   14   37 1
    29   14   38 1
    30   15   16 1
    31   15   39 1
    32   15   40 1
    33   16   41 1
    34   16   42 1
    35   17   18 2
    36   17   19 am
    37   19   20 1
    38   19   43 1
    39   20   25 ar
    40   20   21 ar
    41   21   22 ar
    42   21   44 1
    43   22   23 ar
    44   22   45 1
    45   23   24 ar
    46   23   46 1
    47   24   25 ar
    48   24   26 1
    49   25   47 1
    50   26   48 1
@<TRIPOS>MOLECULE
ZINC00845957
   43    46     0     0     0
SMALL
USER_CHARGES

@<TRIPOS>ATOM
      1 C1          2.9247    5.0781    0.1954 C.3       1 <0>        -0.0629
      2 O1          2.1238    5.6636    1.2239 O.3       1 <0>        -0.2039
      3 C2          1.0113    4.9814    1.6031 C.ar      1 <0>         0.1168
      4 C3          0.6945    3.7757    0.9930 C.ar      1 <0>        -0.2329
      5 C4         -0.4334    3.0778    1.3813 C.ar      1 <0>        -0.0714
      6 C5         -1.2554    3.5832    2.3698 C.ar      1 <0>        -0.1990
      7 C6         -0.9464    4.7927    2.9803 C.ar      1 <0>         0.0923
      8 C7          0.1894    5.4921    2.5952 C.ar      1 <0>        -0.1500
      9 N1         -1.7778    5.3043    3.9798 N.pl3     1 <0>        -0.2734
     10 C8         -1.9514    6.6692    4.1021 C.ar      1 <0>         0.1303
     11 C9         -2.7333    7.2045    5.2233 C.ar      1 <0>         0.1300
     12 N2         -2.9114    8.5016    5.3592 N.ar      1 <0>        -0.1464
     13 C10        -2.3730    9.3402    4.4644 C.ar      1 <0>        -0.1047
     14 C11        -1.5833    8.7997    3.3321 C.ar      1 <0>        -0.1042
     15 N3         -1.4095    7.4769    3.2150 N.ar      1 <0>        -0.1468
     16 N4         -1.2265    9.8833    2.6847 N.2       1 <0>        -0.0282
     17 O2         -1.6741   10.8544    3.2586 O.3       1 <0>         0.1444
     18 N5         -2.3245   10.6349    4.2592 N.2       1 <0>        -0.0279
     19 N6         -3.2875    6.3381    6.1454 N.pl3     1 <0>        -0.2732
     20 C12        -3.9327    6.8420    7.2775 C.ar      1 <0>         0.0929
     21 C13        -5.0225    6.1679    7.8152 C.ar      1 <0>        -0.1997
     22 C14        -5.6602    6.6663    8.9345 C.ar      1 <0>        -0.0709
     23 C15        -5.2165    7.8356    9.5227 C.ar      1 <0>        -0.2335
     24 C16        -4.1280    8.5128    8.9907 C.ar      1 <0>         0.1173
     25 C17        -3.4826    8.0139    7.8704 C.ar      1 <0>        -0.1509
     26 O3         -3.6928    9.6622    9.5706 O.3       1 <0>        -0.2039
     27 C18        -4.4027   10.1156   10.7250 C.3       1 <0>        -0.0629
     28 H1          3.7791    5.7227   -0.0110 H         1 <0>         0.1106
     29 H2          2.3280    4.9648   -0.7096 H         1 <0>         0.0699
     30 H3          3.2780    4.1001    0.5225 H         1 <0>         0.0663
     31 H4          1.3327    3.3801    0.2167 H         1 <0>         0.1369
     32 H5         -0.6753    2.1378    0.9077 H         1 <0>         0.1335
     33 H6         -2.1384    3.0378    2.6685 H         1 <0>         0.1282
     34 H7          0.4322    6.4322    3.0682 H         1 <0>         0.1724
     35 H8         -2.2331    4.7011    4.5878 H         1 <0>         0.2435
     36 H9         -3.2287    5.3798    6.0069 H         1 <0>         0.2435
     37 H10        -5.3712    5.2540    7.3575 H         1 <0>         0.1281
     38 H11        -6.5070    6.1411    9.3511 H         1 <0>         0.1335
     39 H12        -5.7172    8.2227   10.3978 H         1 <0>         0.1369
     40 H13        -2.6331    8.5376    7.4572 H         1 <0>         0.1725
     41 H14        -4.3506    9.3561   11.5051 H         1 <0>         0.0663
     42 H15        -3.9537   11.0403   11.0877 H         1 <0>         0.1105
     43 H16        -5.4451   10.2963   10.4628 H         1 <0>         0.0700
@<TRIPOS>BOND
     1    1    2 1
     2    1   28 1
     3    1   29 1
     4    1   30 1
     5    2    3 1
     6    3    8 ar
     7    3    4 ar
     8    4    5 ar
     9    4   31 1
    10    5    6 ar
    11    5   32 1
    12    6    7 ar
    13    6   33 1
    14    7    8 ar
    15    7    9 1
    16    8   34 1
    17    9   10 1
    18    9   35 1
    19   10   15 ar
    20   10   11 ar
    21   11   12 ar
    22   11   19 1
    23   12   13 ar
    24   13   18 2
    25   13   14 ar
    26   14   15 ar
    27   14   16 2
    28   16   17 1
    29   17   18 1
    30   19   20 1
    31   19   36 1
    32   20   25 ar
    33   20   21 ar
    34   21   22 ar
    35   21   37 1
    36   22   23 ar
    37   22   38 1
    38   23   24 ar
    39   23   39 1
    40   24   25 ar
    41   24   26 1
    42   25   40 1
    43   26   27 1
    44   27   41 1
    45   27   42 1
    46   27   43 1
@<TRIPOS>MOLECULE
ZINC00848822
   41    43     0     0     0
SMALL
USER_CHARGES

@<TRIPOS>ATOM
      1 C1         -5.1080    7.9807   11.9293 C.3       1 <0>        -0.1755
      2 C2         -4.5357    7.4592   10.6364 C.ar      1 <0>        -0.0639
      3 C3         -3.1956    7.6494   10.3496 C.ar      1 <0>        -0.1384
      4 C4         -2.6648    7.1686    9.1702 C.ar      1 <0>        -0.1037
      5 C5         -3.4840    6.4999    8.2617 C.ar      1 <0>        -0.0274
      6 C6         -4.8331    6.3113    8.5560 C.ar      1 <0>        -0.0354
      7 C7         -5.3520    6.7919    9.7412 C.ar      1 <0>        -0.1343
      8 C8         -5.7236    5.5836    7.5821 C.3       1 <0>        -0.1680
      9 C9         -2.9206    5.9859    6.9898 C.2       1 <0>         0.0162
     10 C10        -2.1676    6.7983    6.1901 C.2       1 <0>        -0.3595
     11 S1         -1.7702    5.6773    4.8553 S.3       1 <0>         0.2704
     12 C11        -2.6484    4.2545    5.4866 C.2       1 <0>        -0.0185
     13 N1         -3.1428    4.7283    6.6155 N.2       1 <0>        -0.2396
     14 N2         -2.7726    2.9871    4.9389 N.pl3     1 <0>        -0.2505
     15 C12        -2.2756    2.7272    3.6588 C.ar      1 <0>         0.1332
     16 C13        -1.7544    1.4758    3.3552 C.ar      1 <0>        -0.1900
     17 C14        -1.2637    1.2225    2.0894 C.ar      1 <0>         0.0041
     18 C15        -1.2907    2.2129    1.1247 C.ar      1 <0>        -0.7895
     19 C16        -1.8036    3.4615    1.4252 C.ar      1 <0>         0.0078
     20 C17        -2.3012    3.7198    2.6873 C.ar      1 <0>        -0.1989
     21 S2         -0.6635    1.8855   -0.4890 S.o2      1 <0>         2.7645
     22 O1          0.2635    0.8169   -0.3553 O.2       1 <0>        -0.9167
     23 O2         -0.3029    3.1415   -1.0472 O.2       1 <0>        -0.9159
     24 N3         -1.9231    1.3086   -1.3961 N.pl3     1 <0>        -0.9314
     25 H1         -5.0208    7.2150   12.7002 H         1 <0>         0.0872
     26 H2         -4.5586    8.8704   12.2371 H         1 <0>         0.0814
     27 H3         -6.1584    8.2338   11.7857 H         1 <0>         0.0815
     28 H4         -2.5629    8.1715   11.0521 H         1 <0>         0.1311
     29 H5         -1.6175    7.3134    8.9495 H         1 <0>         0.1327
     30 H6         -6.3973    6.6463    9.9703 H         1 <0>         0.1325
     31 H7         -5.6635    4.5109    7.7664 H         1 <0>         0.0970
     32 H8         -6.7531    5.9174    7.7118 H         1 <0>         0.0722
     33 H9         -5.3984    5.7960    6.5637 H         1 <0>         0.0868
     34 H10        -1.8855    7.8316    6.3288 H         1 <0>         0.2013
     35 H11        -3.2045    2.2806    5.4441 H         1 <0>         0.2629
     36 H12        -1.7333    0.7017    4.1081 H         1 <0>         0.1444
     37 H13        -0.8580    0.2499    1.8528 H         1 <0>         0.1582
     38 H14        -1.8188    4.2343    0.6708 H         1 <0>         0.1594
     39 H15        -2.7060    4.6937    2.9200 H         1 <0>         0.1581
     40 H16        -2.8028    1.2125   -0.9989 H         1 <0>         0.2295
     41 H17        -1.7813    1.0668   -2.3248 H         1 <0>         0.2444
@<TRIPOS>BOND
     1    1    2 1
     2    1   25 1
     3    1   26 1
     4    1   27 1
     5    2    7 ar
     6    2    3 ar
     7    3    4 ar
     8    3   28 1
     9    4    5 ar
    10    4   29 1
    11    5    6 ar
    12    5    9 1
    13    6    7 ar
    14    6    8 1
    15    7   30 1
    16    8   31 1
    17    8   32 1
    18    8   33 1
    19    9   13 1
    20    9   10 2
    21   10   11 1
    22   10   34 1
    23   11   12 1
    24   12   13 2
    25   12   14 1
    26   14   15 1
    27   14   35 1
    28   15   20 ar
    29   15   16 ar
    30   16   17 ar
    31   16   36 1
    32   17   18 ar
    33   17   37 1
    34   18   19 ar
    35   18   21 1
    36   19   20 ar
    37   19   38 1
    38   20   39 1
    39   21   22 2
    40   21   23 2
    41   21   24 1
    42   24   40 1
    43   24   41 1
@<TRIPOS>MOLECULE
ZINC00848824
   41    43     0     0     0
SMALL
USER_CHARGES

@<TRIPOS>ATOM
      1 C1         -1.2525   -0.7922   -0.3686 C.3       1 <0>        -0.1769
      2 C2          0.0352   -0.0092   -0.3699 C.ar      1 <0>        -0.0674
      3 C3          1.2389   -0.6628   -0.5650 C.ar      1 <0>        -0.1282
      4 C4          2.4210    0.0489   -0.5667 C.ar      1 <0>        -0.1168
      5 C5          2.4008    1.4292   -0.3719 C.ar      1 <0>        -0.0224
      6 C6          1.1852    2.0823   -0.1768 C.ar      1 <0>        -0.0881
      7 C7          0.0090    1.3601   -0.1766 C.ar      1 <0>        -0.0820
      8 C8         -1.3068    2.0656    0.0284 C.3       1 <0>        -0.1743
      9 C9          3.6680    2.1998   -0.3731 C.2       1 <0>         0.0201
     10 C10         4.8511    1.5823   -0.6655 C.2       1 <0>        -0.3652
     11 S1          5.9885    2.9539   -0.5192 S.3       1 <0>         0.2749
     12 C11         4.7835    4.2011   -0.0871 C.2       1 <0>        -0.0139
     13 N1          3.6639    3.5011   -0.0949 N.2       1 <0>        -0.2465
     14 N2          4.9734    5.5480    0.1804 N.pl3     1 <0>        -0.2504
     15 C12         6.2677    6.0693    0.2582 C.ar      1 <0>         0.1325
     16 C13         7.3043    5.2880    0.7532 C.ar      1 <0>        -0.1981
     17 C14         8.5830    5.8047    0.8243 C.ar      1 <0>         0.0106
     18 C15         8.8302    7.1017    0.4132 C.ar      1 <0>        -0.7896
     19 C16         7.7997    7.8840   -0.0751 C.ar      1 <0>         0.0003
     20 C17         6.5196    7.3719   -0.1539 C.ar      1 <0>        -0.1894
     21 S2         10.4621    7.7590    0.5114 S.o2      1 <0>         2.7637
     22 O1         11.3489    6.6488    0.4919 O.2       1 <0>        -0.9173
     23 O2         10.5351    8.8091   -0.4431 O.2       1 <0>        -0.9135
     24 N3         10.6176    8.4628    2.0023 N.pl3     1 <0>        -0.9287
     25 H1         -1.6500   -0.8394   -1.3825 H         1 <0>         0.0865
     26 H2         -1.0631   -1.8022   -0.0052 H         1 <0>         0.0810
     27 H3         -1.9756   -0.3012    0.2826 H         1 <0>         0.0843
     28 H4          1.2534   -1.7321   -0.7158 H         1 <0>         0.1311
     29 H5          3.3601   -0.4623   -0.7190 H         1 <0>         0.1279
     30 H6          1.1635    3.1516   -0.0260 H         1 <0>         0.1510
     31 H7         -1.5419    2.0941    1.0924 H         1 <0>         0.0854
     32 H8         -1.2370    3.0834   -0.3556 H         1 <0>         0.0824
     33 H9         -2.0931    1.5298   -0.5032 H         1 <0>         0.0826
     34 H10         5.0456    0.5500   -0.9164 H         1 <0>         0.1997
     35 H11         4.2078    6.1287    0.3135 H         1 <0>         0.2625
     36 H12         7.1110    4.2765    1.0786 H         1 <0>         0.1583
     37 H13         9.3902    5.1963    1.2048 H         1 <0>         0.1589
     38 H14         7.9963    8.8964   -0.3956 H         1 <0>         0.1566
     39 H15         5.7153    7.9832   -0.5357 H         1 <0>         0.1437
     40 H16        11.4846    8.4930    2.4363 H         1 <0>         0.2447
     41 H17         9.8418    8.8449    2.4416 H         1 <0>         0.2303
@<TRIPOS>BOND
     1    1    2 1
     2    1   25 1
     3    1   26 1
     4    1   27 1
     5    2    7 ar
     6    2    3 ar
     7    3    4 ar
     8    3   28 1
     9    4    5 ar
    10    4   29 1
    11    5    6 ar
    12    5    9 1
    13    6    7 ar
    14    6   30 1
    15    7    8 1
    16    8   31 1
    17    8   32 1
    18    8   33 1
    19    9   13 1
    20    9   10 2
    21   10   11 1
    22   10   34 1
    23   11   12 1
    24   12   13 2
    25   12   14 1
    26   14   15 1
    27   14   35 1
    28   15   20 ar
    29   15   16 ar
    30   16   17 ar
    31   16   36 1
    32   17   18 ar
    33   17   37 1
    34   18   19 ar
    35   18   21 1
    36   19   20 ar
    37   19   38 1
    38   20   39 1
    39   21   22 2
    40   21   23 2
    41   21   24 1
    42   24   40 1
    43   24   41 1
@<TRIPOS>MOLECULE
ZINC00850688
   43    46     0     0     0
SMALL
USER_CHARGES

@<TRIPOS>ATOM
      1 C1          6.9274   -0.3566    1.3605 C.3       1 <0>        -0.0660
      2 O1          6.1158   -0.5514    0.2005 O.3       1 <0>        -0.1920
      3 C2          4.9252    0.1021    0.1639 C.ar      1 <0>         0.0913
      4 C3          4.5483    0.9145    1.2242 C.ar      1 <0>        -0.1909
      5 C4          3.3440    1.5842    1.1893 C.ar      1 <0>        -0.0899
      6 C5          2.4950    1.4377    0.0896 C.ar      1 <0>        -0.0801
      7 C6          2.8743    0.6200   -0.9778 C.ar      1 <0>        -0.1598
      8 C7          4.0853   -0.0443   -0.9387 C.ar      1 <0>         0.0727
      9 O2          4.4574   -0.8414   -1.9758 O.3       1 <0>        -0.1931
     10 C8          3.5476   -0.9457   -3.0728 C.3       1 <0>        -0.0662
     11 C9          1.2019    2.1505    0.0528 C.2       1 <0>         0.1338
     12 C10        -0.0176    1.4284    0.0595 C.2       1 <0>        -0.1928
     13 C11        -1.2335    2.1041    0.0194 C.2       1 <0>         0.2839
     14 N1         -1.2903    3.4671   -0.0157 N.pl3     1 <0>        -0.1120
     15 C12        -2.3592    4.3491   -0.0545 C.ar      1 <0>        -0.0859
     16 C13        -3.7366    4.1876   -0.0668 C.ar      1 <0>        -0.1148
     17 C14        -4.5552    5.2975   -0.1105 C.ar      1 <0>        -0.1192
     18 C15        -4.0095    6.5728   -0.1413 C.ar      1 <0>        -0.1213
     19 C16        -2.6553    6.7518   -0.1297 C.ar      1 <0>        -0.0777
     20 C17        -1.8055    5.6408   -0.0860 C.ar      1 <0>         0.0058
     21 N2         -0.4582    5.5032   -0.0658 N.2       1 <0>        -0.1645
     22 C18        -0.1415    4.2224   -0.0243 C.2       1 <0>         0.1170
     23 C19         1.1628    3.5511    0.0111 C.2       1 <0>        -0.0647
     24 C20         2.3749    4.3136    0.0036 C.1       1 <0>        -0.0605
     25 N3          3.3364    4.9185   -0.0023 N.1       1 <0>        -0.0304
     26 N4         -2.3975    1.3863    0.0211 N.pl3     1 <0>        -0.3811
     27 C21         0.0015   -0.0029    0.1018 C.1       1 <0>        -0.0713
     28 N5          0.0167   -1.1383    0.1354 N.1       1 <0>        -0.0447
     29 H1          7.8471   -0.9332    1.2615 H         1 <0>         0.1116
     30 H2          7.1708    0.7013    1.4601 H         1 <0>         0.0698
     31 H3          6.3834   -0.6890    2.2446 H         1 <0>         0.0673
     32 H4          5.2021    1.0257    2.0766 H         1 <0>         0.1463
     33 H5          3.0551    2.2193    2.0137 H         1 <0>         0.1417
     34 H6          2.2224    0.5071   -1.8314 H         1 <0>         0.1469
     35 H7          3.9652   -1.6100   -3.8293 H         1 <0>         0.1113
     36 H8          2.5979   -1.3481   -2.7202 H         1 <0>         0.0688
     37 H9          3.3856    0.0415   -3.5056 H         1 <0>         0.0668
     38 H10        -4.1668    3.1972   -0.0430 H         1 <0>         0.1162
     39 H11        -5.6279    5.1728   -0.1201 H         1 <0>         0.1386
     40 H12        -4.6621    7.4328   -0.1751 H         1 <0>         0.1403
     41 H13        -2.2412    7.7489   -0.1539 H         1 <0>         0.1528
     42 H14        -2.3715    0.4199   -0.0575 H         1 <0>         0.2557
     43 H15        -3.2492    1.8437    0.1008 H         1 <0>         0.2404
@<TRIPOS>BOND
     1    1    2 1
     2    1   29 1
     3    1   30 1
     4    1   31 1
     5    2    3 1
     6    3    8 ar
     7    3    4 ar
     8    4    5 ar
     9    4   32 1
    10    5    6 ar
    11    5   33 1
    12    6    7 ar
    13    6   11 1
    14    7    8 ar
    15    7   34 1
    16    8    9 1
    17    9   10 1
    18   10   35 1
    19   10   36 1
    20   10   37 1
    21   11   23 2
    22   11   12 1
    23   12   13 2
    24   12   27 1
    25   13   14 1
    26   13   26 1
    27   14   22 1
    28   14   15 1
    29   15   20 ar
    30   15   16 ar
    31   16   17 ar
    32   16   38 1
    33   17   18 ar
    34   17   39 1
    35   18   19 ar
    36   18   40 1
    37   19   20 ar
    38   19   41 1
    39   20   21 1
    40   21   22 2
    41   22   23 1
    42   23   24 1
    43   24   25 3
    44   26   42 1
    45   26   43 1
    46   27   28 3
@<TRIPOS>MOLECULE
ZINC00858222
   42    43     0     0     0
SMALL
USER_CHARGES

@<TRIPOS>ATOM
      1 C1          0.0791    5.9811   -2.6720 C.3       1 <0>        -0.2163
      2 C2         -1.3857    5.5540   -2.5582 C.3       1 <0>        -0.1026
      3 C3         -2.1878    6.1726   -3.7049 C.3       1 <0>        -0.2092
      4 C4         -1.4796    4.0288   -2.6348 C.3       1 <0>        -0.1840
      5 C5         -0.7934    3.4226   -1.4379 C.2       1 <0>         0.3251
      6 O1         -0.2798    4.1398   -0.6055 O.2       1 <0>        -0.3265
      7 N1         -0.7504    2.0834   -1.2923 N.am      1 <0>        -0.8305
      8 S1          0.0036    1.4172    0.0230 S.o2      1 <0>         2.7497
      9 O2         -0.1426    0.0087   -0.0953 O.2       1 <0>        -0.9155
     10 O3          1.2742    2.0454    0.1241 O.2       1 <0>        -0.8836
     11 C6         -0.9121    1.9006    1.4486 C.ar      1 <0>        -0.7800
     12 C7         -0.5852    3.0669    2.1157 C.ar      1 <0>         0.0127
     13 C8         -1.3040    3.4512    3.2307 C.ar      1 <0>        -0.1571
     14 C9         -2.3494    2.6592    3.6880 C.ar      1 <0>         0.1212
     15 C10        -2.6718    1.4856    3.0187 C.ar      1 <0>        -0.1903
     16 C11        -1.9523    1.1098    1.9013 C.ar      1 <0>        -0.0125
     17 N2         -3.0755    3.0423    4.8199 N.am      1 <0>        -0.3220
     18 C12        -3.2797    4.3491    5.0790 C.2       1 <0>         0.3944
     19 O4         -2.9163    5.1920    4.2798 O.2       1 <0>        -0.3323
     20 C13        -3.9395    4.7552    6.3238 C.2       1 <0>        -0.1308
     21 C14        -4.2069    6.0379    6.7088 C.2       1 <0>        -0.1163
     22 C15        -4.8425    5.9601    7.9579 C.2       1 <0>        -0.2329
     23 C16        -4.9342    4.6501    8.2765 C.2       1 <0>        -0.0673
     24 O5         -4.3942    3.9270    7.2868 O.3       1 <0>        -0.0573
     25 H1          0.1460    7.0677   -2.6174 H         1 <0>         0.0768
     26 H2          0.6505    5.5405   -1.8551 H         1 <0>         0.1073
     27 H3          0.4843    5.6395   -3.6245 H         1 <0>         0.0656
     28 H4         -1.7908    5.8956   -1.6058 H         1 <0>         0.1085
     29 H5         -3.2313    5.8682   -3.6239 H         1 <0>         0.0699
     30 H6         -2.1209    7.2591   -3.6504 H         1 <0>         0.0824
     31 H7         -1.7826    5.8309   -4.6574 H         1 <0>         0.0723
     32 H8         -0.9948    3.6803   -3.5467 H         1 <0>         0.1085
     33 H9         -2.5276    3.7293   -2.6432 H         1 <0>         0.1041
     34 H10        -1.1612    1.5098   -1.9580 H         1 <0>         0.2521
     35 H11         0.2306    3.6800    1.7623 H         1 <0>         0.1737
     36 H12        -1.0509    4.3643    3.7488 H         1 <0>         0.1677
     37 H13        -3.4843    0.8678    3.3715 H         1 <0>         0.1364
     38 H14        -2.2027    0.1976    1.3802 H         1 <0>         0.1477
     39 H15        -3.4322    2.3676    5.4186 H         1 <0>         0.2453
     40 H16        -3.9740    6.9378    6.1590 H         1 <0>         0.1778
     41 H17        -5.1925    6.7910    8.5524 H         1 <0>         0.1644
     42 H18        -5.3748    4.2516    9.1785 H         1 <0>         0.2033
@<TRIPOS>BOND
     1    1    2 1
     2    1   25 1
     3    1   26 1
     4    1   27 1
     5    2    3 1
     6    2    4 1
     7    2   28 1
     8    3   29 1
     9    3   30 1
    10    3   31 1
    11    4    5 1
    12    4   32 1
    13    4   33 1
    14    5    6 2
    15    5    7 am
    16    7    8 1
    17    7   34 1
    18    8    9 2
    19    8   10 2
    20    8   11 1
    21   11   16 ar
    22   11   12 ar
    23   12   13 ar
    24   12   35 1
    25   13   14 ar
    26   13   36 1
    27   14   15 ar
    28   14   17 1
    29   15   16 ar
    30   15   37 1
    31   16   38 1
    32   17   18 am
    33   17   39 1
    34   18   19 2
    35   18   20 1
    36   20   24 1
    37   20   21 2
    38   21   22 1
    39   21   40 1
    40   22   23 2
    41   22   41 1
    42   23   24 1
    43   23   42 1
@<TRIPOS>MOLECULE
ZINC00859413
   42    43     0     0     0
SMALL
USER_CHARGES

@<TRIPOS>ATOM
      1 C1          8.5540   10.6265   -2.0695 C.3       1 <0>        -0.1958
      2 C2          7.4733   11.3415   -1.2560 C.3       1 <0>        -0.1892
      3 C3          6.3031   10.4143   -1.0508 C.2       1 <0>         0.3014
      4 O1          6.3308    9.2921   -1.5100 O.2       1 <0>        -0.3550
      5 N1          5.2259   10.8321   -0.3570 N.am      1 <0>        -0.3294
      6 C4          4.1006   10.0076   -0.2486 C.ar      1 <0>         0.0763
      7 C5          2.8285   10.5662   -0.2284 C.ar      1 <0>        -0.1722
      8 C6          1.7171    9.7529   -0.1214 C.ar      1 <0>        -0.0963
      9 C7          1.8663    8.3820   -0.0337 C.ar      1 <0>        -0.1403
     10 C8          3.1353    7.8174   -0.0534 C.ar      1 <0>         0.0709
     11 C9          4.2540    8.6320   -0.1559 C.ar      1 <0>        -0.1581
     12 N2          3.2856    6.4291    0.0360 N.am      1 <0>        -0.3219
     13 C10         2.3786    5.6147   -0.5389 C.2       1 <0>         0.3015
     14 O2          1.3887    6.0821   -1.0610 O.2       1 <0>        -0.3166
     15 C11         2.5944    4.1232   -0.5329 C.3       1 <0>        -0.0416
     16 O3          1.5043    3.4815   -1.1977 O.3       1 <0>        -0.1670
     17 C12         1.5441    2.1256   -1.2805 C.ar      1 <0>         0.1383
     18 C13         0.5185    1.4377   -1.9125 C.ar      1 <0>        -0.1605
     19 C14         0.5611    0.0594   -1.9949 C.ar      1 <0>        -0.0324
     20 C15         1.6248   -0.6345   -1.4482 C.ar      1 <0>        -0.1521
     21 C16         2.6480    0.0488   -0.8175 C.ar      1 <0>        -0.0274
     22 C17         2.6098    1.4270   -0.7320 C.ar      1 <0>        -0.2367
     23 N3          1.6679   -2.1112   -1.5380 N.pl3     1 <0>         0.5536
     24 O4          0.7669   -2.7142   -2.0931 O.2       1 <0>        -0.3577
     25 O5          2.6044   -2.7235   -1.0568 O.3       1 <0>        -0.3608
     26 H1          8.8846    9.7376   -1.5323 H         1 <0>         0.0888
     27 H2          8.1469   10.3355   -3.0378 H         1 <0>         0.0929
     28 H3          9.4003   11.2972   -2.2179 H         1 <0>         0.0743
     29 H4          7.1426   12.2305   -1.7931 H         1 <0>         0.1026
     30 H5          7.8804   11.6326   -0.2877 H         1 <0>         0.0988
     31 H6          5.2307   11.7044    0.0673 H         1 <0>         0.2333
     32 H7          2.7086   11.6374   -0.2961 H         1 <0>         0.1304
     33 H8          0.7294   10.1894   -0.1060 H         1 <0>         0.1379
     34 H9          0.9955    7.7488    0.0505 H         1 <0>         0.1649
     35 H10         5.2419    8.1957   -0.1672 H         1 <0>         0.1643
     36 H11         4.0426    6.0529    0.5117 H         1 <0>         0.2323
     37 H12         2.6520    3.7685    0.4961 H         1 <0>         0.0968
     38 H13         3.5245    3.8886   -1.0507 H         1 <0>         0.1025
     39 H14        -0.3104    1.9795   -2.3435 H         1 <0>         0.1664
     40 H15        -0.2369   -0.4766   -2.4871 H         1 <0>         0.1711
     41 H16         3.4776   -0.4955   -0.3909 H         1 <0>         0.1660
     42 H17         3.4093    1.9603   -0.2392 H         1 <0>         0.1459
@<TRIPOS>BOND
     1    1    2 1
     2    1   26 1
     3    1   27 1
     4    1   28 1
     5    2    3 1
     6    2   29 1
     7    2   30 1
     8    3    4 2
     9    3    5 am
    10    5    6 1
    11    5   31 1
    12    6   11 ar
    13    6    7 ar
    14    7    8 ar
    15    7   32 1
    16    8    9 ar
    17    8   33 1
    18    9   10 ar
    19    9   34 1
    20   10   11 ar
    21   10   12 1
    22   11   35 1
    23   12   13 am
    24   12   36 1
    25   13   14 2
    26   13   15 1
    27   15   16 1
    28   15   37 1
    29   15   38 1
    30   16   17 1
    31   17   22 ar
    32   17   18 ar
    33   18   19 ar
    34   18   39 1
    35   19   20 ar
    36   19   40 1
    37   20   21 ar
    38   20   23 1
    39   21   22 ar
    40   21   41 1
    41   22   42 1
    42   23   24 2
    43   23   25 1
@<TRIPOS>MOLECULE
ZINC00859491
   47    49     0     0     0
SMALL
USER_CHARGES

@<TRIPOS>ATOM
      1 C1          3.7168   -1.1204    3.9465 C.ar      1 <0>        -0.1386
      2 C2          4.6993   -1.6283    3.1164 C.ar      1 <0>        -0.1087
      3 C3          4.6171   -1.4397    1.7508 C.ar      1 <0>        -0.1597
      4 C4          3.5459   -0.7390    1.2112 C.ar      1 <0>         0.0541
      5 C5          2.5606   -0.2303    2.0479 C.ar      1 <0>        -0.1457
      6 C6          2.6490   -0.4225    3.4127 C.ar      1 <0>        -0.1151
      7 N1          3.4598   -0.5461   -0.1694 N.pl3     1 <0>        -0.8156
      8 S1          4.7902   -0.0478   -1.0204 S.o2      1 <0>         2.7642
      9 O1          5.8447   -0.9391   -0.6841 O.2       1 <0>        -0.9149
     10 O2          4.3627    0.1555   -2.3602 O.2       1 <0>        -0.9141
     11 C7          5.2480    1.5336   -0.3923 C.ar      1 <0>        -0.7784
     12 C8          4.6363    2.6734   -0.8809 C.ar      1 <0>        -0.0067
     13 C9          4.9894    3.9141   -0.3873 C.ar      1 <0>        -0.1897
     14 C10         5.9675    4.0168    0.5931 C.ar      1 <0>         0.1218
     15 C11         6.5838    2.8706    1.0779 C.ar      1 <0>        -0.1533
     16 C12         6.2223    1.6325    0.5839 C.ar      1 <0>        -0.0046
     17 N2          6.3317    5.2727    1.0912 N.am      1 <0>        -0.3325
     18 C13         7.6039    5.5038    1.4715 C.2       1 <0>         0.3046
     19 O3          8.4531    4.6559    1.2953 O.2       1 <0>        -0.3428
     20 C14         7.9713    6.8157    2.1157 C.3       1 <0>        -0.1332
     21 C15         7.6597    7.9622    1.1516 C.3       1 <0>        -0.1536
     22 C16         8.0327    9.2941    1.8056 C.3       1 <0>        -0.1571
     23 C17         9.5263    9.2986    2.1377 C.3       1 <0>        -0.1604
     24 C18         9.8379    8.1522    3.1017 C.3       1 <0>        -0.1612
     25 C19         9.4649    6.8202    2.4477 C.3       1 <0>        -0.1399
     26 H1          3.7859   -1.2654    5.0145 H         1 <0>         0.1307
     27 H2          5.5321   -2.1726    3.5366 H         1 <0>         0.1367
     28 H3          5.3849   -1.8365    1.1031 H         1 <0>         0.1784
     29 H4          1.7266    0.3152    1.6317 H         1 <0>         0.1324
     30 H5          1.8835   -0.0269    4.0638 H         1 <0>         0.1313
     31 H6          2.6208   -0.7041   -0.6299 H         1 <0>         0.2524
     32 H7          3.8786    2.5931   -1.6463 H         1 <0>         0.1474
     33 H8          4.5084    4.8036   -0.7663 H         1 <0>         0.1352
     34 H9          7.3445    2.9472    1.8407 H         1 <0>         0.1661
     35 H10         6.7009    0.7407    0.9608 H         1 <0>         0.1566
     36 H11         5.6686    5.9770    1.1628 H         1 <0>         0.2361
     37 H12         7.3951    6.9446    3.0319 H         1 <0>         0.1090
     38 H13         8.2360    7.8333    0.2355 H         1 <0>         0.0973
     39 H14         6.5957    7.9589    0.9151 H         1 <0>         0.0719
     40 H15         7.4565    9.4230    2.7218 H         1 <0>         0.0811
     41 H16         7.8107   10.1109    1.1188 H         1 <0>         0.0849
     42 H17         9.7920   10.2475    2.6036 H         1 <0>         0.0826
     43 H18        10.1025    9.1697    1.2215 H         1 <0>         0.0861
     44 H19         9.2616    8.2810    4.0179 H         1 <0>         0.0795
     45 H20        10.9019    8.1554    3.3382 H         1 <0>         0.0877
     46 H21         9.6869    6.0034    3.1345 H         1 <0>         0.0967
     47 H22        10.0411    6.6913    1.5315 H         1 <0>         0.1013
@<TRIPOS>BOND
     1    1    6 ar
     2    1    2 ar
     3    1   26 1
     4    2    3 ar
     5    2   27 1
     6    3    4 ar
     7    3   28 1
     8    4    5 ar
     9    4    7 1
    10    5    6 ar
    11    5   29 1
    12    6   30 1
    13    7    8 1
    14    7   31 1
    15    8    9 2
    16    8   10 2
    17    8   11 1
    18   11   16 ar
    19   11   12 ar
    20   12   13 ar
    21   12   32 1
    22   13   14 ar
    23   13   33 1
    24   14   15 ar
    25   14   17 1
    26   15   16 ar
    27   15   34 1
    28   16   35 1
    29   17   18 am
    30   17   36 1
    31   18   19 2
    32   18   20 1
    33   20   25 1
    34   20   21 1
    35   20   37 1
    36   21   22 1
    37   21   38 1
    38   21   39 1
    39   22   23 1
    40   22   40 1
    41   22   41 1
    42   23   24 1
    43   23   42 1
    44   23   43 1
    45   24   25 1
    46   24   44 1
    47   24   45 1
    48   25   46 1
    49   25   47 1
@<TRIPOS>MOLECULE
ZINC00859871
   40    41     0     0     0
SMALL
USER_CHARGES

@<TRIPOS>ATOM
      1 C1          4.3749    5.6992    1.6088 C.3       1 <0>        -0.2129
      2 C2          3.7286    6.1999    0.3156 C.3       1 <0>        -0.0571
      3 H1          4.3019    5.8416   -0.5395 H         1 <0>         0.1123
      4 C3          2.2948    5.6734    0.2249 C.3       1 <0>        -0.1807
      5 C4          2.3179    4.1715    0.1036 C.2       1 <0>         0.3034
      6 O1          3.3768    3.5803    0.0909 O.2       1 <0>        -0.3469
      7 N1          1.1618    3.4852    0.0092 N.am      1 <0>        -0.3331
      8 C5          1.1779    2.0862   -0.0059 C.ar      1 <0>         0.1182
      9 C6          0.1539    1.3718    0.6020 C.ar      1 <0>        -0.1886
     10 C7          0.1725   -0.0091    0.5849 C.ar      1 <0>        -0.0093
     11 C8          1.2096   -0.6804   -0.0363 C.ar      1 <0>        -0.7816
     12 C9          2.2310    0.0280   -0.6422 C.ar      1 <0>        -0.0102
     13 C10         2.2182    1.4090   -0.6286 C.ar      1 <0>        -0.1544
     14 S1          1.2299   -2.4422   -0.0554 S.o2      1 <0>         2.7633
     15 O2          2.5862   -2.8309   -0.2245 O.2       1 <0>        -0.9163
     16 O3          0.4473   -2.8693    1.0511 O.2       1 <0>        -0.9193
     17 N2          0.4252   -2.9264   -1.4193 N.pl3     1 <0>        -0.9319
     18 C11         3.7115    7.7068    0.3132 C.ar      1 <0>        -0.0775
     19 C12         3.0358    8.3919    1.3057 C.ar      1 <0>        -0.1267
     20 C13         3.0239    9.7742    1.3059 C.ar      1 <0>        -0.1256
     21 C14         3.6795   10.4713    0.3084 C.ar      1 <0>        -0.1289
     22 C15         4.3511    9.7861   -0.6868 C.ar      1 <0>        -0.1250
     23 C16         4.3667    8.4038   -0.6846 C.ar      1 <0>        -0.1213
     24 H2          4.3872    4.6093    1.6106 H         1 <0>         0.1073
     25 H3          5.3963    6.0742    1.6734 H         1 <0>         0.0828
     26 H4          3.8015    6.0574    2.4639 H         1 <0>         0.0671
     27 H5          1.8054    6.1012   -0.6501 H         1 <0>         0.1071
     28 H6          1.7462    5.9570    1.1231 H         1 <0>         0.1073
     29 H7          0.3185    3.9612   -0.0482 H         1 <0>         0.2363
     30 H8         -0.6585    1.8956    1.0838 H         1 <0>         0.1368
     31 H9         -0.6236   -0.5652    1.0576 H         1 <0>         0.1543
     32 H10         3.0398   -0.4992   -1.1262 H         1 <0>         0.1574
     33 H11         3.0163    1.9616   -1.1020 H         1 <0>         0.1725
     34 H12         0.0530   -2.2649   -2.0234 H         1 <0>         0.2289
     35 H13         0.3260   -3.8714   -1.6141 H         1 <0>         0.2430
     36 H14         2.5202    7.8472    2.0827 H         1 <0>         0.1280
     37 H15         2.4994   10.3095    2.0836 H         1 <0>         0.1293
     38 H16         3.6673   11.5512    0.3067 H         1 <0>         0.1295
     39 H17         4.8634   10.3307   -1.4662 H         1 <0>         0.1304
     40 H18         4.8912    7.8685   -1.4623 H         1 <0>         0.1320
@<TRIPOS>BOND
     1    1    2 1
     2    1   24 1
     3    1   25 1
     4    1   26 1
     5    2    3 1
     6    2    4 1
     7    2   18 1
     8    4    5 1
     9    4   27 1
    10    4   28 1
    11    5    6 2
    12    5    7 am
    13    7    8 1
    14    7   29 1
    15    8   13 ar
    16    8    9 ar
    17    9   10 ar
    18    9   30 1
    19   10   11 ar
    20   10   31 1
    21   11   12 ar
    22   11   14 1
    23   12   13 ar
    24   12   32 1
    25   13   33 1
    26   14   15 2
    27   14   16 2
    28   14   17 1
    29   17   34 1
    30   17   35 1
    31   18   23 ar
    32   18   19 ar
    33   19   20 ar
    34   19   36 1
    35   20   21 ar
    36   20   37 1
    37   21   22 ar
    38   21   38 1
    39   22   23 ar
    40   22   39 1
    41   23   40 1
@<TRIPOS>MOLECULE
ZINC00859873
   40    41     0     0     0
SMALL
USER_CHARGES

@<TRIPOS>ATOM
      1 C1          4.4618    5.9109   -0.9958 C.3       1 <0>        -0.2130
      2 C2          3.7286    6.1999    0.3156 C.3       1 <0>        -0.0571
      3 H1          4.2459    5.7053    1.1377 H         1 <0>         0.1123
      4 C3          2.2948    5.6734    0.2249 C.3       1 <0>        -0.1810
      5 C4          2.3179    4.1715    0.1036 C.2       1 <0>         0.3020
      6 O1          3.3768    3.5803    0.0909 O.2       1 <0>        -0.3441
      7 N1          1.1618    3.4852    0.0092 N.am      1 <0>        -0.3332
      8 C5          1.1769    2.0861    0.0078 C.ar      1 <0>         0.1214
      9 C6          2.1332    1.3997    0.7446 C.ar      1 <0>        -0.1544
     10 C7          2.1451    0.0187    0.7414 C.ar      1 <0>        -0.0120
     11 C8          1.2064   -0.6807    0.0053 C.ar      1 <0>        -0.7833
     12 C9          0.2530   -0.0002   -0.7297 C.ar      1 <0>        -0.0048
     13 C10         0.2358    1.3808   -0.7308 C.ar      1 <0>        -0.1895
     14 S1          1.2254   -2.4426    0.0035 S.o2      1 <0>         2.7630
     15 O2          0.5845   -2.8544   -1.1960 O.2       1 <0>        -0.9206
     16 O3          2.5510   -2.8348    0.3324 O.2       1 <0>        -0.9132
     17 N2          0.2599   -2.9439    1.2521 N.pl3     1 <0>        -0.9296
     18 C11         3.7033    7.6867    0.5599 C.ar      1 <0>        -0.0776
     19 C12         3.1011    8.5277   -0.3571 C.ar      1 <0>        -0.1266
     20 C13         3.0740    9.8911   -0.1309 C.ar      1 <0>        -0.1257
     21 C14         3.6572   10.4145    1.0080 C.ar      1 <0>        -0.1289
     22 C15         4.2640    9.5740    1.9225 C.ar      1 <0>        -0.1250
     23 C16         4.2872    8.2101    1.6983 C.ar      1 <0>        -0.1212
     24 H2          5.4832    6.2859   -0.9312 H         1 <0>         0.0829
     25 H3          4.4801    4.8355   -1.1725 H         1 <0>         0.1074
     26 H4          3.9445    6.4055   -1.8179 H         1 <0>         0.0668
     27 H5          1.8054    6.1012   -0.6501 H         1 <0>         0.1058
     28 H6          1.7462    5.9570    1.1231 H         1 <0>         0.1085
     29 H7          0.3193    3.9613   -0.0577 H         1 <0>         0.2362
     30 H8          2.8641    1.9453    1.3230 H         1 <0>         0.1661
     31 H9          2.8886   -0.5157    1.3142 H         1 <0>         0.1557
     32 H10        -0.4786   -0.5493   -1.3039 H         1 <0>         0.1539
     33 H11        -0.5091    1.9117   -1.3051 H         1 <0>         0.1369
     34 H12        -0.2150   -3.7874    1.1895 H         1 <0>         0.2431
     35 H13         0.1693   -2.3941    2.0461 H         1 <0>         0.2298
     36 H14         2.6487    8.1192   -1.2487 H         1 <0>         0.1279
     37 H15         2.5996   10.5478   -0.8452 H         1 <0>         0.1293
     38 H16         3.6384   11.4799    1.1834 H         1 <0>         0.1295
     39 H17         4.7196    9.9828    2.8122 H         1 <0>         0.1304
     40 H18         4.7613    7.5534    2.4128 H         1 <0>         0.1320
@<TRIPOS>BOND
     1    1    2 1
     2    1   24 1
     3    1   25 1
     4    1   26 1
     5    2    3 1
     6    2    4 1
     7    2   18 1
     8    4    5 1
     9    4   27 1
    10    4   28 1
    11    5    6 2
    12    5    7 am
    13    7    8 1
    14    7   29 1
    15    8   13 ar
    16    8    9 ar
    17    9   10 ar
    18    9   30 1
    19   10   11 ar
    20   10   31 1
    21   11   12 ar
    22   11   14 1
    23   12   13 ar
    24   12   32 1
    25   13   33 1
    26   14   15 2
    27   14   16 2
    28   14   17 1
    29   17   34 1
    30   17   35 1
    31   18   23 ar
    32   18   19 ar
    33   19   20 ar
    34   19   36 1
    35   20   21 ar
    36   20   37 1
    37   21   22 ar
    38   21   38 1
    39   22   23 ar
    40   22   39 1
    41   23   40 1
@<TRIPOS>MOLECULE
ZINC00859942
   39    40     0     0     0
SMALL
USER_CHARGES

@<TRIPOS>ATOM
      1 C1          2.7115    5.1808   -1.4815 C.3       1 <0>        -0.2362
      2 C2          2.4897    3.8714   -0.7694 C.2       1 <0>         0.3018
      3 O1          3.2038    3.5577    0.1594 O.2       1 <0>        -0.3535
      4 N1          1.4978    3.0489   -1.1645 N.am      1 <0>        -0.3260
      5 C3          1.3582    1.7876   -0.5750 C.ar      1 <0>         0.0802
      6 C4          2.4830    1.0856   -0.1598 C.ar      1 <0>        -0.1384
      7 C5          2.3460   -0.1598    0.4219 C.ar      1 <0>        -0.0958
      8 C6          1.0907   -0.7115    0.5929 C.ar      1 <0>        -0.1757
      9 C7         -0.0378   -0.0147    0.1799 C.ar      1 <0>         0.0715
     10 C8          0.0965    1.2366   -0.4048 C.ar      1 <0>        -0.1604
     11 N2         -1.3087   -0.5738    0.3538 N.am      1 <0>        -0.3227
     12 C9         -2.3577    0.2175    0.6536 C.2       1 <0>         0.3222
     13 O2         -2.2179    1.4217    0.6907 O.2       1 <0>        -0.3282
     14 C10        -3.7044   -0.3940    0.9428 C.3       1 <0>        -0.3739
     15 S1         -4.8995    0.9207    1.3087 S.3       1 <0>         0.3994
     16 C11        -6.4025    0.0558    1.6207 C.ar      1 <0>        -0.1759
     17 C12        -6.4373   -1.3315    1.5416 C.ar      1 <0>        -0.1678
     18 C13        -7.6154   -2.0062    1.7924 C.ar      1 <0>        -0.0660
     19 C14        -8.7630   -1.3026    2.1109 C.ar      1 <0>        -0.1524
     20 C15        -8.7335    0.0779    2.1849 C.ar      1 <0>        -0.0458
     21 C16        -7.5573    0.7592    1.9409 C.ar      1 <0>        -0.1126
     22 N3         -7.5268    2.2368    2.0199 N.pl3     1 <0>         0.5464
     23 O3         -8.5395    2.8527    2.3006 O.2       1 <0>        -0.3558
     24 O4         -6.4891    2.8370    1.8042 O.3       1 <0>        -0.3347
     25 H1          1.9789    5.2879   -2.2815 H         1 <0>         0.0787
     26 H2          2.5997    6.0026   -0.7742 H         1 <0>         0.1161
     27 H3          3.7161    5.1991   -1.9039 H         1 <0>         0.1123
     28 H4          0.8808    3.3313   -1.8577 H         1 <0>         0.2343
     29 H5          3.4656    1.5140   -0.2920 H         1 <0>         0.1608
     30 H6          3.2219   -0.7036    0.7437 H         1 <0>         0.1364
     31 H7          0.9865   -1.6834    1.0521 H         1 <0>         0.1277
     32 H8         -0.7794    1.7804   -0.7263 H         1 <0>         0.1647
     33 H9         -1.4347   -1.5309    0.2586 H         1 <0>         0.2318
     34 H10        -4.0409   -0.9594    0.0738 H         1 <0>         0.1183
     35 H11        -3.6238   -1.0609    1.8012 H         1 <0>         0.1220
     36 H12        -5.5428   -1.8812    1.2883 H         1 <0>         0.1408
     37 H13        -7.6421   -3.0844    1.7355 H         1 <0>         0.1411
     38 H14        -9.6843   -1.8328    2.3018 H         1 <0>         0.1477
     39 H15        -9.6315    0.6240    2.4335 H         1 <0>         0.1677
@<TRIPOS>BOND
     1    1    2 1
     2    1   25 1
     3    1   26 1
     4    1   27 1
     5    2    3 2
     6    2    4 am
     7    4    5 1
     8    4   28 1
     9    5   10 ar
    10    5    6 ar
    11    6    7 ar
    12    6   29 1
    13    7    8 ar
    14    7   30 1
    15    8    9 ar
    16    8   31 1
    17    9   10 ar
    18    9   11 1
    19   10   32 1
    20   11   12 am
    21   11   33 1
    22   12   13 2
    23   12   14 1
    24   14   15 1
    25   14   34 1
    26   14   35 1
    27   15   16 1
    28   16   21 ar
    29   16   17 ar
    30   17   18 ar
    31   17   36 1
    32   18   19 ar
    33   18   37 1
    34   19   20 ar
    35   19   38 1
    36   20   21 ar
    37   20   39 1
    38   21   22 1
    39   22   23 2
    40   22   24 1
@<TRIPOS>MOLECULE
ZINC00867970
   41    43     0     0     0
SMALL
USER_CHARGES

@<TRIPOS>ATOM
      1 C1          3.7558   -5.2463   -2.5238 C.3       1 <0>        -0.1305
      2 C2          2.8971   -4.0094   -2.4623 C.2       1 <0>        -0.2536
      3 C3          1.6222   -3.8335   -2.8932 C.2       1 <0>        -0.1831
      4 C4          1.0213   -2.6039   -2.7284 C.2       1 <0>        -0.1461
      5 C5          1.7375   -1.5947   -2.1442 C.2       1 <0>        -0.1979
      6 S1          3.2948   -2.3986   -1.8034 S.3       1 <0>         0.3521
      7 C6          1.3261   -0.2017   -1.8624 C.2       1 <0>        -0.0346
      8 C7          2.1147    0.7916   -1.2494 C.2       1 <0>        -0.1422
      9 C8          1.3124    1.9156   -1.2018 C.2       1 <0>        -0.1669
     10 N1          0.1186    1.5645   -1.7673 N.pl3     1 <0>        -0.1110
     11 H1         -0.6669    2.1739   -1.8751 H         1 <0>         0.2819
     12 N2          0.1554    0.3360   -2.1396 N.2       1 <0>        -0.0631
     13 C9          1.6725    3.2317   -0.6510 C.2       1 <0>         0.3834
     14 O1          2.7776    3.4099   -0.1741 O.2       1 <0>        -0.2954
     15 N3          0.7783    4.2398   -0.6748 N.am      1 <0>        -0.3433
     16 N4          1.1212    5.4929   -0.1504 N.2       1 <0>         0.0268
     17 C10         0.2247    6.4278   -0.0643 C.2       1 <0>        -0.1124
     18 C11        -1.2071    6.0773   -0.0522 C.ar      1 <0>        -0.0645
     19 C12        -1.6021    4.7521    0.1489 C.ar      1 <0>        -0.1851
     20 C13        -2.9421    4.4274    0.1661 C.ar      1 <0>        -0.1188
     21 C14        -3.9003    5.4117   -0.0280 C.ar      1 <0>         0.0564
     22 C15        -3.5137    6.7340   -0.2353 C.ar      1 <0>         0.0792
     23 C16        -2.1726    7.0683   -0.2476 C.ar      1 <0>        -0.1903
     24 O2         -4.4560    7.6961   -0.4251 O.3       1 <0>        -0.1955
     25 C17        -3.9883    9.0305   -0.6314 C.3       1 <0>        -0.0673
     26 O3         -5.2198    5.0851   -0.0162 O.3       1 <0>        -0.2723
     27 H2          4.7308   -5.0339   -2.0852 H         1 <0>         0.0876
     28 H3          3.2746   -6.0507   -1.9676 H         1 <0>         0.0932
     29 H4          3.8832   -5.5488   -3.5632 H         1 <0>         0.0931
     30 H5          1.0837   -4.6478   -3.3551 H         1 <0>         0.1432
     31 H6          0.0059   -2.4391   -3.0574 H         1 <0>         0.1522
     32 H7          3.1294    0.6951   -0.8926 H         1 <0>         0.1864
     33 H8         -0.1027    4.0977   -1.0550 H         1 <0>         0.2203
     34 H9          0.5278    7.4625   -0.0015 H         1 <0>         0.1872
     35 H10        -0.8581    3.9832    0.2957 H         1 <0>         0.1522
     36 H11        -3.2463    3.4036    0.3261 H         1 <0>         0.1498
     37 H12        -1.8716    8.0932   -0.4075 H         1 <0>         0.1456
     38 H13        -3.4123    9.3519    0.2365 H         1 <0>         0.0722
     39 H14        -3.3559    9.0609   -1.5186 H         1 <0>         0.0670
     40 H15        -4.8399    9.6968   -0.7692 H         1 <0>         0.1156
     41 H16        -5.5735    4.8458   -0.8838 H         1 <0>         0.2287
@<TRIPOS>BOND
     1    1    2 1
     2    1   27 1
     3    1   28 1
     4    1   29 1
     5    2    6 1
     6    2    3 2
     7    3    4 1
     8    3   30 1
     9    4    5 2
    10    4   31 1
    11    5    6 1
    12    5    7 1
    13    7   12 2
    14    7    8 1
    15    8    9 2
    16    8   32 1
    17    9   10 1
    18    9   13 1
    19   10   11 1
    20   10   12 1
    21   13   14 2
    22   13   15 am
    23   15   16 1
    24   15   33 1
    25   16   17 2
    26   17   18 1
    27   17   34 1
    28   18   23 ar
    29   18   19 ar
    30   19   20 ar
    31   19   35 1
    32   20   21 ar
    33   20   36 1
    34   21   22 ar
    35   21   26 1
    36   22   23 ar
    37   22   24 1
    38   23   37 1
    39   24   25 1
    40   25   38 1
    41   25   39 1
    42   25   40 1
    43   26   41 1
@<TRIPOS>MOLECULE
ZINC00867970
   41    43     0     0     0
SMALL
USER_CHARGES

@<TRIPOS>ATOM
      1 C1          3.7569   -5.2454   -2.5267 C.3       1 <0>        -0.1317
      2 C2          2.8980   -4.0087   -2.4646 C.2       1 <0>        -0.2530
      3 C3          1.6230   -3.8328   -2.8953 C.2       1 <0>        -0.1802
      4 C4          1.0219   -2.6034   -2.7300 C.2       1 <0>        -0.1674
      5 C5          1.7380   -1.5943   -2.1455 C.2       1 <0>        -0.2244
      6 S1          3.2955   -2.3980   -1.8052 S.3       1 <0>         0.3903
      7 C6          1.3264   -0.2015   -1.8632 C.2       1 <0>        -0.0463
      8 C7          2.1149    0.7918   -1.2499 C.2       1 <0>        -0.1594
      9 C8          1.3124    1.9156   -1.2018 C.2       1 <0>        -0.1527
     10 N1          0.1183    1.5643   -1.7665 N.2       1 <0>        -0.1191
     11 H1         -0.6019   -0.1473   -2.5789 H         1 <0>         0.2877
     12 N2          0.1552    0.3358   -2.1391 N.pl3     1 <0>        -0.0435
     13 C9          1.6725    3.2317   -0.6510 C.2       1 <0>         0.4013
     14 O1          2.7776    3.4099   -0.1741 O.2       1 <0>        -0.3139
     15 N3          0.7783    4.2398   -0.6748 N.am      1 <0>        -0.3307
     16 N4          1.1212    5.4929   -0.1504 N.2       1 <0>         0.0188
     17 C10         0.2247    6.4278   -0.0643 C.2       1 <0>        -0.1161
     18 C11        -1.2071    6.0773   -0.0522 C.ar      1 <0>        -0.0664
     19 C12        -1.6021    4.7521    0.1489 C.ar      1 <0>        -0.1706
     20 C13        -2.9421    4.4274    0.1661 C.ar      1 <0>        -0.1135
     21 C14        -3.9003    5.4117   -0.0280 C.ar      1 <0>         0.0517
     22 C15        -3.5137    6.7340   -0.2353 C.ar      1 <0>         0.0743
     23 C16        -2.1726    7.0683   -0.2476 C.ar      1 <0>        -0.1919
     24 O2         -4.4560    7.6961   -0.4251 O.3       1 <0>        -0.1984
     25 C17        -3.9883    9.0305   -0.6314 C.3       1 <0>        -0.0664
     26 O3         -5.2198    5.0851   -0.0162 O.3       1 <0>        -0.2751
     27 H2          4.7319   -5.0330   -2.0881 H         1 <0>         0.0899
     28 H3          3.2759   -6.0501   -1.9707 H         1 <0>         0.0953
     29 H4          3.8842   -5.5475   -3.5662 H         1 <0>         0.0953
     30 H5          1.0846   -4.6471   -3.3575 H         1 <0>         0.1453
     31 H6          0.0065   -2.4386   -3.0588 H         1 <0>         0.1313
     32 H7          3.1297    0.6954   -0.8935 H         1 <0>         0.1852
     33 H8         -0.1027    4.0977   -1.0550 H         1 <0>         0.2429
     34 H9          0.5278    7.4625   -0.0015 H         1 <0>         0.1829
     35 H10        -0.8581    3.9832    0.2957 H         1 <0>         0.1610
     36 H11        -3.2463    3.4036    0.3261 H         1 <0>         0.1492
     37 H12        -1.8716    8.0932   -0.4075 H         1 <0>         0.1426
     38 H13        -3.4123    9.3519    0.2365 H         1 <0>         0.0708
     39 H14        -3.3559    9.0609   -1.5186 H         1 <0>         0.0665
     40 H15        -4.8399    9.6968   -0.7692 H         1 <0>         0.1125
     41 H16        -5.5735    4.8458   -0.8838 H         1 <0>         0.2262
@<TRIPOS>BOND
     1    1    2 1
     2    1   27 1
     3    1   28 1
     4    1   29 1
     5    2    6 1
     6    2    3 2
     7    3    4 1
     8    3   30 1
     9    4    5 2
    10    4   31 1
    11    5    6 1
    12    5    7 1
    13    7    8 2
    14    7   12 1
    15    8   32 1
    16    8    9 1
    17    9   13 1
    18    9   10 2
    19   10   12 1
    20   11   12 1
    21   13   14 2
    22   13   15 am
    23   15   16 1
    24   15   33 1
    25   16   17 2
    26   17   18 1
    27   17   34 1
    28   18   23 ar
    29   18   19 ar
    30   19   20 ar
    31   19   35 1
    32   20   21 ar
    33   20   36 1
    34   21   22 ar
    35   21   26 1
    36   22   23 ar
    37   22   24 1
    38   23   37 1
    39   24   25 1
    40   25   38 1
    41   25   39 1
    42   25   40 1
    43   26   41 1
@<TRIPOS>MOLECULE
ZINC00882482
   43    46     0     0     0
SMALL
USER_CHARGES

@<TRIPOS>ATOM
      1 C1         -0.8999    2.1379    4.5275 C.3       1 <0>        -0.0737
      2 N1          0.0479    1.2579    3.8394 N.pl3     1 <0>        -0.1493
      3 C2          0.9779    0.4242    4.4165 C.2       1 <0>        -0.0351
      4 N2          1.6139   -0.1786    3.4390 N.2       1 <0>        -0.0763
      5 N3          1.1488    0.2116    2.3064 N.2       1 <0>        -0.1124
      6 C3          0.1928    1.0939    2.4908 C.2       1 <0>        -0.2293
      7 S1         -0.7349    1.9081    1.2333 S.3       1 <0>         0.3187
      8 C4          0.0258    1.1808   -0.2392 C.3       1 <0>        -0.3080
      9 C5         -0.6279    1.7463   -1.4737 C.2       1 <0>         0.3166
     10 O1         -1.5203    2.5609   -1.3683 O.2       1 <0>        -0.3403
     11 N4         -0.2210    1.3468   -2.6949 N.am      1 <0>        -0.3179
     12 C6         -0.8928    1.7965   -3.8390 C.ar      1 <0>         0.0622
     13 C7         -1.0328    0.9578   -4.9366 C.ar      1 <0>        -0.1565
     14 C8         -1.6988    1.3985   -6.0642 C.ar      1 <0>        -0.0968
     15 C9         -2.2207    2.6813   -6.1065 C.ar      1 <0>        -0.0104
     16 C10        -2.0772    3.5269   -5.0090 C.ar      1 <0>         0.0221
     17 C11        -1.4135    3.0826   -3.8775 C.ar      1 <0>        -0.1138
     18 O2         -2.6713    4.7215   -5.2979 O.3       1 <0>        -0.2023
     19 C12        -2.8210    4.7404   -6.7297 C.3       1 <0>         0.1067
     20 O3         -2.9052    3.3472   -7.0832 O.3       1 <0>        -0.2078
     21 C13         1.2156    0.2413    5.8639 C.ar      1 <0>        -0.0182
     22 C14         2.4061   -0.3353    6.3103 C.ar      1 <0>        -0.0720
     23 C15         2.6260   -0.4997    7.6611 C.ar      1 <0>        -0.1549
     24 C16         1.6608   -0.1024    8.5770 C.ar      1 <0>         0.0826
     25 C17         0.4731    0.4667    8.1369 C.ar      1 <0>        -0.1545
     26 C18         0.2477    0.6394    6.7879 C.ar      1 <0>        -0.1199
     27 O4          1.8790   -0.2713    9.9075 O.3       1 <0>        -0.2914
     28 H1         -1.7861    1.5688    4.8081 H         1 <0>         0.0964
     29 H2         -0.4319    2.5465    5.4231 H         1 <0>         0.1088
     30 H3         -1.1868    2.9531    3.8633 H         1 <0>         0.1095
     31 H4         -0.1077    0.0991   -0.2205 H         1 <0>         0.1413
     32 H5          1.0902    1.4153   -0.2519 H         1 <0>         0.1391
     33 H6          0.5371    0.7478   -2.7816 H         1 <0>         0.2387
     34 H7         -0.6236   -0.0412   -4.9078 H         1 <0>         0.1395
     35 H8         -1.8103    0.7428   -6.9151 H         1 <0>         0.1463
     36 H9         -1.3009    3.7367   -3.0256 H         1 <0>         0.1780
     37 H10        -1.9531    5.2030   -7.1995 H         1 <0>         0.0874
     38 H11        -3.7348    5.2631   -7.0124 H         1 <0>         0.1311
     39 H12         3.1556   -0.6483    5.5984 H         1 <0>         0.1591
     40 H13         3.5485   -0.9419    8.0075 H         1 <0>         0.1472
     41 H14        -0.2750    0.7747    8.8523 H         1 <0>         0.1432
     42 H15        -0.6764    1.0817    6.4463 H         1 <0>         0.1348
     43 H16         1.5733   -1.1219   10.2512 H         1 <0>         0.2314
@<TRIPOS>BOND
     1    1    2 1
     2    1   28 1
     3    1   29 1
     4    1   30 1
     5    2    6 1
     6    2    3 1
     7    3    4 2
     8    3   21 1
     9    4    5 1
    10    5    6 2
    11    6    7 1
    12    7    8 1
    13    8    9 1
    14    8   31 1
    15    8   32 1
    16    9   10 2
    17    9   11 am
    18   11   12 1
    19   11   33 1
    20   12   17 ar
    21   12   13 ar
    22   13   14 ar
    23   13   34 1
    24   14   15 ar
    25   14   35 1
    26   15   20 1
    27   15   16 ar
    28   16   17 ar
    29   16   18 1
    30   17   36 1
    31   18   19 1
    32   19   20 1
    33   19   37 1
    34   19   38 1
    35   21   26 ar
    36   21   22 ar
    37   22   23 ar
    38   22   39 1
    39   23   24 ar
    40   23   40 1
    41   24   25 ar
    42   24   27 1
    43   25   26 ar
    44   25   41 1
    45   26   42 1
    46   27   43 1
@<TRIPOS>MOLECULE
ZINC00884868
   38    39     0     0     0
SMALL
USER_CHARGES

@<TRIPOS>ATOM
      1 C1         -7.2099    0.9435   -0.7493 C.3       1 <0>        -0.2143
      2 C2         -5.8874    1.7069   -0.8444 C.3       1 <0>        -0.1484
      3 C3         -4.8085    0.9576   -0.0599 C.3       1 <0>        -0.1867
      4 C4         -3.5058    1.7095   -0.1535 C.2       1 <0>         0.3027
      5 O1         -3.4462    2.7430   -0.7855 O.2       1 <0>        -0.3528
      6 N1         -2.4070    1.2335    0.4650 N.am      1 <0>        -0.3281
      7 C5         -1.1763    1.8782    0.2993 C.ar      1 <0>         0.0791
      8 C6         -1.1260    3.2621    0.1854 C.ar      1 <0>        -0.1352
      9 C7          0.0881    3.8990    0.0156 C.ar      1 <0>        -0.0953
     10 C8          1.2565    3.1632   -0.0354 C.ar      1 <0>        -0.1687
     11 C9          1.2136    1.7797    0.0836 C.ar      1 <0>         0.0678
     12 C10        -0.0047    1.1369    0.2539 C.ar      1 <0>        -0.1624
     13 N2          2.3963    1.0357    0.0315 N.am      1 <0>        -0.3071
     14 C11         2.3940   -0.1962   -0.5152 C.2       1 <0>         0.3838
     15 O2          1.3861   -0.6242   -1.0465 O.2       1 <0>        -0.3236
     16 C12         3.6056   -1.0206   -0.4699 C.2       1 <0>        -0.0585
     17 C13         3.7393   -2.2794   -0.9825 C.2       1 <0>        -0.1443
     18 C14         5.0564   -2.6853   -0.7169 C.2       1 <0>        -0.1232
     19 C15         5.6613   -1.6696   -0.0624 C.2       1 <0>        -0.0777
     20 O3          4.7854   -0.6664    0.0801 O.3       1 <0>        -0.0276
     21 N3          7.0629   -1.6644    0.4139 N.pl3     1 <0>         0.5844
     22 O4          7.7741   -2.6348    0.2243 O.2       1 <0>        -0.3230
     23 O5          7.5050   -0.6896    0.9952 O.3       1 <0>        -0.3205
     24 H1         -7.0840   -0.0550   -1.1677 H         1 <0>         0.0716
     25 H2         -7.5095    0.8644    0.2957 H         1 <0>         0.0704
     26 H3         -7.9786    1.4774   -1.3082 H         1 <0>         0.0804
     27 H4         -6.0133    2.7055   -0.4259 H         1 <0>         0.0969
     28 H5         -5.5878    1.7860   -1.8894 H         1 <0>         0.0999
     29 H6         -4.6825   -0.0410   -0.4783 H         1 <0>         0.1039
     30 H7         -5.1080    0.8785    0.9851 H         1 <0>         0.0997
     31 H8         -2.4694    0.4439    1.0250 H         1 <0>         0.2332
     32 H9         -2.0374    3.8401    0.2251 H         1 <0>         0.1676
     33 H10         0.1240    4.9744   -0.0772 H         1 <0>         0.1392
     34 H11         2.2041    3.6641   -0.1682 H         1 <0>         0.1326
     35 H12        -0.0408    0.0615    0.3463 H         1 <0>         0.1557
     36 H13         3.2185    1.4062    0.3889 H         1 <0>         0.2462
     37 H14         2.9790   -2.8515   -1.4934 H         1 <0>         0.1924
     38 H15         5.5026   -3.6314   -0.9856 H         1 <0>         0.1899
@<TRIPOS>BOND
     1    1    2 1
     2    1   24 1
     3    1   25 1
     4    1   26 1
     5    2    3 1
     6    2   27 1
     7    2   28 1
     8    3    4 1
     9    3   29 1
    10    3   30 1
    11    4    5 2
    12    4    6 am
    13    6    7 1
    14    6   31 1
    15    7   12 ar
    16    7    8 ar
    17    8    9 ar
    18    8   32 1
    19    9   10 ar
    20    9   33 1
    21   10   11 ar
    22   10   34 1
    23   11   12 ar
    24   11   13 1
    25   12   35 1
    26   13   14 am
    27   13   36 1
    28   14   15 2
    29   14   16 1
    30   16   20 1
    31   16   17 2
    32   17   18 1
    33   17   37 1
    34   18   19 2
    35   18   38 1
    36   19   20 1
    37   19   21 1
    38   21   22 2
    39   21   23 1
@<TRIPOS>MOLECULE
ZINC00889193
   42    44     0     0     0
SMALL
USER_CHARGES

@<TRIPOS>ATOM
      1 C1         -4.9656    3.7133   -0.3483 C.3       1 <0>        -0.1661
      2 C2         -3.6495    2.9797   -0.3208 C.ar      1 <0>        -0.1305
      3 C3         -3.6299    1.5971   -0.3378 C.ar      1 <0>        -0.0802
      4 C4         -2.4255    0.9217   -0.3131 C.ar      1 <0>        -0.1955
      5 C5         -1.2329    1.6327   -0.2711 C.ar      1 <0>         0.1171
      6 C6         -1.2564    3.0215   -0.2488 C.ar      1 <0>        -0.2103
      7 C7         -2.4641    3.6907   -0.2790 C.ar      1 <0>        -0.0810
      8 N1         -0.0131    0.9528   -0.2455 N.pl3     1 <0>        -0.3712
      9 C8          1.2438    1.7044   -0.2073 C.3       1 <0>        -0.0192
     10 C9          2.4039    0.7427   -0.1924 C.2       1 <0>         0.3111
     11 O1          2.2008   -0.4531   -0.2118 O.2       1 <0>        -0.3197
     12 N2          3.6672    1.2112   -0.1575 N.am      1 <0>        -0.3233
     13 N3          4.7457    0.3171   -0.1437 N.2       1 <0>         0.0166
     14 C10         5.9622    0.7682   -0.1101 C.2       1 <0>        -0.1534
     15 C11         7.0971   -0.1726   -0.0955 C.ar      1 <0>         0.0355
     16 C12         6.8665   -1.5472    0.0048 C.ar      1 <0>        -0.0955
     17 C13         7.9330   -2.4258    0.0128 C.ar      1 <0>         0.0481
     18 C14         9.2379   -1.9391   -0.0680 C.ar      1 <0>         0.0040
     19 C15         9.4663   -0.5741   -0.1623 C.ar      1 <0>        -0.0635
     20 C16         8.4062    0.3079   -0.1761 C.ar      1 <0>        -0.1047
     21 N4          8.6557    1.7636   -0.2769 N.pl3     1 <0>         0.5598
     22 O2          9.7863    2.1762   -0.4638 O.2       1 <0>        -0.3374
     23 O3          7.7303    2.5487   -0.1729 O.3       1 <0>        -0.3734
     24 O4         10.0995   -2.9973   -0.0343 O.3       1 <0>        -0.1954
     25 C17         9.3008   -4.1542   -0.3449 C.3       1 <0>         0.1052
     26 O5          7.9804   -3.7878    0.0969 O.3       1 <0>        -0.1921
     27 H1         -5.3117    3.8771    0.6722 H         1 <0>         0.0809
     28 H2         -4.8356    4.6740   -0.8466 H         1 <0>         0.0771
     29 H3         -5.7013    3.1194   -0.8906 H         1 <0>         0.0778
     30 H4         -4.5574    1.0449   -0.3701 H         1 <0>         0.1300
     31 H5         -2.4109   -0.1581   -0.3267 H         1 <0>         0.1326
     32 H6         -0.3311    3.5773   -0.2116 H         1 <0>         0.1234
     33 H7         -2.4829    4.7704   -0.2658 H         1 <0>         0.1279
     34 H8          0.0019   -0.0170   -0.2571 H         1 <0>         0.2535
     35 H9          1.3123    2.3428   -1.0882 H         1 <0>         0.0991
     36 H10         1.2713    2.3209    0.6912 H         1 <0>         0.0991
     37 H11         3.8296    2.1674   -0.1420 H         1 <0>         0.2168
     38 H12         6.1430    1.8329   -0.0928 H         1 <0>         0.1873
     39 H13         5.8561   -1.9226    0.0722 H         1 <0>         0.1891
     40 H14        10.4778   -0.2008   -0.2248 H         1 <0>         0.1799
     41 H15         9.3060   -4.3462   -1.4179 H         1 <0>         0.0985
     42 H16         9.6614   -5.0261    0.2007 H         1 <0>         0.1420
@<TRIPOS>BOND
     1    1    2 1
     2    1   27 1
     3    1   28 1
     4    1   29 1
     5    2    7 ar
     6    2    3 ar
     7    3    4 ar
     8    3   30 1
     9    4    5 ar
    10    4   31 1
    11    5    6 ar
    12    5    8 1
    13    6    7 ar
    14    6   32 1
    15    7   33 1
    16    8    9 1
    17    8   34 1
    18    9   10 1
    19    9   35 1
    20    9   36 1
    21   10   11 2
    22   10   12 am
    23   12   13 1
    24   12   37 1
    25   13   14 2
    26   14   15 1
    27   14   38 1
    28   15   20 ar
    29   15   16 ar
    30   16   17 ar
    31   16   39 1
    32   17   26 1
    33   17   18 ar
    34   18   19 ar
    35   18   24 1
    36   19   20 ar
    37   19   40 1
    38   20   21 1
    39   21   22 2
    40   21   23 1
    41   24   25 1
    42   25   26 1
    43   25   41 1
    44   25   42 1
@<TRIPOS>MOLECULE
ZINC00892393
   44    46     0     0     0
SMALL
USER_CHARGES

@<TRIPOS>ATOM
      1 C1         -4.1650   -1.1628    2.2535 C.3       1 <0>        -0.2156
      2 C2         -3.3382   -1.4197    0.9920 C.3       1 <0>        -0.0037
      3 O1         -2.1108   -0.6463    1.0520 O.3       1 <0>        -0.2686
      4 C3         -1.2644   -0.7604    0.0098 C.2       1 <0>         0.3502
      5 O2         -1.5442   -1.4862   -0.9235 O.2       1 <0>        -0.3593
      6 C4          0.0021   -0.0041    0.0020 C.ar      1 <0>        -0.1052
      7 C5          0.8814   -0.1211   -1.0782 C.ar      1 <0>        -0.0581
      8 C6          2.0624    0.5868   -1.0821 C.ar      1 <0>        -0.1248
      9 C7          2.3808    1.4175   -0.0131 C.ar      1 <0>         0.0677
     10 C8          1.5084    1.5365    1.0635 C.ar      1 <0>        -0.1264
     11 C9          0.3256    0.8318    1.0746 C.ar      1 <0>        -0.0709
     12 N1          3.5806    2.1345   -0.0207 N.am      1 <0>        -0.2776
     13 C10         4.7787    1.5429    0.0624 C.2       1 <0>         0.3112
     14 O3          4.9675    0.3488    0.1514 O.2       1 <0>        -0.2904
     15 C11         5.8598    2.6010    0.0270 C.3       1 <0>        -0.2154
     16 C12         5.0705    3.9206   -0.0922 C.3       1 <0>         0.0118
     17 H1          5.2630    4.5617    0.7680 H         1 <0>         0.1414
     18 C13         3.6265    3.4690   -0.1173 C.2       1 <0>         0.2867
     19 O4          2.6637    4.2000   -0.2078 O.2       1 <0>        -0.2780
     20 N2          5.4107    4.6143   -1.3368 N.pl3     1 <0>        -0.3625
     21 C14         5.2544    6.0021   -1.4297 C.ar      1 <0>         0.0925
     22 C15         4.7775    6.7225   -0.3444 C.ar      1 <0>        -0.1811
     23 C16         4.6240    8.0929   -0.4386 C.ar      1 <0>        -0.0896
     24 C17         4.9447    8.7487   -1.6127 C.ar      1 <0>        -0.1630
     25 C18         5.4206    8.0371   -2.6987 C.ar      1 <0>        -0.1081
     26 C19         5.5827    6.6644   -2.6106 C.ar      1 <0>        -0.0001
     27 O5          6.0561    5.9641   -3.6761 O.3       1 <0>        -0.2908
     28 H2         -3.5909   -1.4600    3.1310 H         1 <0>         0.0861
     29 H3         -4.4069   -0.1020    2.3196 H         1 <0>         0.0864
     30 H4         -5.0865   -1.7434    2.2085 H         1 <0>         0.0903
     31 H5         -3.9124   -1.1225    0.1145 H         1 <0>         0.0904
     32 H6         -3.0964   -2.4805    0.9259 H         1 <0>         0.0903
     33 H7          0.6369   -0.7694   -1.9066 H         1 <0>         0.1620
     34 H8          2.7425    0.4966   -1.9162 H         1 <0>         0.1465
     35 H9          1.7592    2.1823    1.8920 H         1 <0>         0.1445
     36 H10        -0.3512    0.9245    1.9111 H         1 <0>         0.1551
     37 H11         6.4429    2.5845    0.9477 H         1 <0>         0.1365
     38 H12         6.5073    2.4590   -0.8383 H         1 <0>         0.1372
     39 H13         5.7443    4.1119   -2.0966 H         1 <0>         0.2433
     40 H14         4.5266    6.2128    0.5741 H         1 <0>         0.1341
     41 H15         4.2530    8.6529    0.4071 H         1 <0>         0.1324
     42 H16         4.8228    9.8196   -1.6820 H         1 <0>         0.1328
     43 H17         5.6702    8.5525   -3.6144 H         1 <0>         0.1407
     44 H18         5.3671    5.6489   -4.2770 H         1 <0>         0.2190
@<TRIPOS>BOND
     1    1    2 1
     2    1   28 1
     3    1   29 1
     4    1   30 1
     5    2    3 1
     6    2   31 1
     7    2   32 1
     8    3    4 1
     9    4    5 2
    10    4    6 1
    11    6   11 ar
    12    6    7 ar
    13    7    8 ar
    14    7   33 1
    15    8    9 ar
    16    8   34 1
    17    9   10 ar
    18    9   12 1
    19   10   11 ar
    20   10   35 1
    21   11   36 1
    22   12   18 am
    23   12   13 am
    24   13   14 2
    25   13   15 1
    26   15   16 1
    27   15   37 1
    28   15   38 1
    29   16   17 1
    30   16   18 1
    31   16   20 1
    32   18   19 2
    33   20   21 1
    34   20   39 1
    35   21   26 ar
    36   21   22 ar
    37   22   23 ar
    38   22   40 1
    39   23   24 ar
    40   23   41 1
    41   24   25 ar
    42   24   42 1
    43   25   26 ar
    44   25   43 1
    45   26   27 1
    46   27   44 1
@<TRIPOS>MOLECULE
ZINC00892395
   44    46     0     0     0
SMALL
USER_CHARGES

@<TRIPOS>ATOM
      1 C1          1.6770    0.3015    1.5403 C.3       1 <0>        -0.2156
      2 C2          0.7406   -0.5373    0.6684 C.3       1 <0>        -0.0036
      3 O1          1.4717   -1.0427   -0.4799 O.3       1 <0>        -0.2682
      4 C3          0.7866   -1.8060   -1.3537 C.2       1 <0>         0.3504
      5 O2         -0.3895   -2.0429   -1.1615 O.2       1 <0>        -0.3601
      6 C4          1.4645   -2.3541   -2.5436 C.ar      1 <0>        -0.1054
      7 C5          2.8160   -2.0780   -2.7695 C.ar      1 <0>        -0.0710
      8 C6          3.4468   -2.5966   -3.8781 C.ar      1 <0>        -0.1243
      9 C7          2.7379   -3.3839   -4.7791 C.ar      1 <0>         0.0668
     10 C8          1.3917   -3.6560   -4.5608 C.ar      1 <0>        -0.1258
     11 C9          0.7555   -3.1462   -3.4512 C.ar      1 <0>        -0.0591
     12 N1          3.3803   -3.9033   -5.9067 N.am      1 <0>        -0.2762
     13 C10         3.6069   -5.2122   -6.0727 C.2       1 <0>         0.3128
     14 O3          3.2938   -6.0838   -5.2905 O.2       1 <0>        -0.2911
     15 C11         4.3129   -5.4316   -7.3929 C.3       1 <0>        -0.2150
     16 C12         4.4654   -4.0065   -7.9625 C.3       1 <0>         0.0118
     17 H1          3.9376   -3.9116   -8.9115 H         1 <0>         0.1375
     18 C13         3.8245   -3.1322   -6.9069 C.2       1 <0>         0.2885
     19 O4          3.7288   -1.9249   -6.9585 O.2       1 <0>        -0.2742
     20 N2          5.8807   -3.6650   -8.1252 N.pl3     1 <0>        -0.3641
     21 C14         6.2570   -2.6386   -8.9993 C.ar      1 <0>         0.0903
     22 C15         5.2912   -1.9435   -9.7125 C.ar      1 <0>        -0.1782
     23 C16         5.6653   -0.9304  -10.5751 C.ar      1 <0>        -0.0896
     24 C17         7.0007   -0.6072  -10.7295 C.ar      1 <0>        -0.1628
     25 C18         7.9689   -1.2957  -10.0218 C.ar      1 <0>        -0.1091
     26 C19         7.6019   -2.3084   -9.1511 C.ar      1 <0>        -0.0008
     27 O5          8.5527   -2.9827   -8.4502 O.3       1 <0>        -0.2886
     28 H2          2.5070   -0.3171    1.8816 H         1 <0>         0.0862
     29 H3          2.0629    1.1384    0.9583 H         1 <0>         0.0867
     30 H4          1.1282    0.6809    2.4023 H         1 <0>         0.0900
     31 H5          0.3546   -1.3742    1.2504 H         1 <0>         0.0901
     32 H6         -0.0894    0.0813    0.3270 H         1 <0>         0.0902
     33 H7          3.3658   -1.4624   -2.0729 H         1 <0>         0.1556
     34 H8          4.4922   -2.3873   -4.0509 H         1 <0>         0.1483
     35 H9          0.8444   -4.2678   -5.2627 H         1 <0>         0.1457
     36 H10        -0.2899   -3.3583   -3.2822 H         1 <0>         0.1615
     37 H11         3.7076   -6.0478   -8.0578 H         1 <0>         0.1351
     38 H12         5.2901   -5.8875   -7.2331 H         1 <0>         0.1340
     39 H13         6.5571   -4.1501   -7.6271 H         1 <0>         0.2431
     40 H14         4.2474   -2.1937   -9.5935 H         1 <0>         0.1363
     41 H15         4.9127   -0.3901  -11.1302 H         1 <0>         0.1330
     42 H16         7.2885    0.1849  -11.4048 H         1 <0>         0.1327
     43 H17         9.0111   -1.0408  -10.1447 H         1 <0>         0.1405
     44 H18         8.8972   -3.7634   -8.9052 H         1 <0>         0.2158
@<TRIPOS>BOND
     1    1    2 1
     2    1   28 1
     3    1   29 1
     4    1   30 1
     5    2    3 1
     6    2   31 1
     7    2   32 1
     8    3    4 1
     9    4    5 2
    10    4    6 1
    11    6   11 ar
    12    6    7 ar
    13    7    8 ar
    14    7   33 1
    15    8    9 ar
    16    8   34 1
    17    9   10 ar
    18    9   12 1
    19   10   11 ar
    20   10   35 1
    21   11   36 1
    22   12   18 am
    23   12   13 am
    24   13   14 2
    25   13   15 1
    26   15   16 1
    27   15   37 1
    28   15   38 1
    29   16   17 1
    30   16   18 1
    31   16   20 1
    32   18   19 2
    33   20   21 1
    34   20   39 1
    35   21   26 ar
    36   21   22 ar
    37   22   23 ar
    38   22   40 1
    39   23   24 ar
    40   23   41 1
    41   24   25 ar
    42   24   42 1
    43   25   26 ar
    44   25   43 1
    45   26   27 1
    46   27   44 1
@<TRIPOS>MOLECULE
ZINC00892397
   44    46     0     0     0
SMALL
USER_CHARGES

@<TRIPOS>ATOM
      1 C1         -1.0672   -0.8809   -0.5262 C.3       1 <0>        -0.2156
      2 C2         -0.1496    0.0085    0.3152 C.3       1 <0>        -0.0037
      3 O1         -0.8388    0.4017    1.5312 O.3       1 <0>        -0.2686
      4 C3         -0.1641    1.1926    2.3884 C.2       1 <0>         0.3502
      5 O2          0.9692    1.5441    2.1269 O.2       1 <0>        -0.3593
      6 C4         -0.8012    1.6318    3.6442 C.ar      1 <0>        -0.1050
      7 C5         -2.1069    1.2331    3.9441 C.ar      1 <0>        -0.0709
      8 C6         -2.6961    1.6400    5.1202 C.ar      1 <0>        -0.1265
      9 C7         -1.9982    2.4567    6.0035 C.ar      1 <0>         0.0675
     10 C8         -0.7009    2.8601    5.7059 C.ar      1 <0>        -0.1242
     11 C9         -0.1028    2.4522    4.5346 C.ar      1 <0>        -0.0581
     12 N1         -2.6019    2.8727    7.1935 N.am      1 <0>        -0.2769
     13 C10        -2.1866    2.4630    8.3984 C.2       1 <0>         0.3118
     14 O3         -1.2642    1.7033    8.6023 O.2       1 <0>        -0.2902
     15 C11        -3.0489    3.1009    9.4657 C.3       1 <0>        -0.2147
     16 C12        -4.0515    3.9516    8.6596 C.3       1 <0>         0.0124
     17 H1         -5.0727    3.6122    8.8330 H         1 <0>         0.1402
     18 C13        -3.6467    3.7094    7.2219 C.2       1 <0>         0.2874
     19 O4         -4.1835    4.1955    6.2498 O.2       1 <0>        -0.2758
     20 N2         -3.9161    5.3698    9.0014 N.pl3     1 <0>        -0.3666
     21 C14        -4.9657    6.2539    8.7419 C.ar      1 <0>         0.1236
     22 C15        -6.1367    5.7905    8.1542 C.ar      1 <0>        -0.1968
     23 C16        -7.1766    6.6640    7.9029 C.ar      1 <0>        -0.0705
     24 C17        -7.0515    8.0024    8.2244 C.ar      1 <0>        -0.1987
     25 C18        -5.8824    8.4720    8.8062 C.ar      1 <0>         0.1124
     26 C19        -4.8384    7.5976    9.0653 C.ar      1 <0>        -0.2238
     27 O5         -5.7612    9.7881    9.1221 O.3       1 <0>        -0.2932
     28 H2         -1.9716   -0.3296   -0.7833 H         1 <0>         0.0864
     29 H3         -0.5498   -1.1761   -1.4391 H         1 <0>         0.0903
     30 H4         -1.3338   -1.7706    0.0442 H         1 <0>         0.0861
     31 H5          0.7549   -0.5428    0.5723 H         1 <0>         0.0903
     32 H6          0.1170    0.8982   -0.2552 H         1 <0>         0.0904
     33 H7         -2.6514    0.6032    3.2563 H         1 <0>         0.1552
     34 H8         -3.7031    1.3281    5.3551 H         1 <0>         0.1444
     35 H9         -0.1618    3.4937    6.3945 H         1 <0>         0.1466
     36 H10         0.9045    2.7662    4.3040 H         1 <0>         0.1621
     37 H11        -2.4495    3.7328   10.1210 H         1 <0>         0.1344
     38 H12        -3.5706    2.3375   10.0429 H         1 <0>         0.1367
     39 H13        -3.0975    5.6947    9.4080 H         1 <0>         0.2364
     40 H14        -6.2351    4.7461    7.8976 H         1 <0>         0.1334
     41 H15        -8.0875    6.3014    7.4500 H         1 <0>         0.1340
     42 H16        -7.8646    8.6839    8.0223 H         1 <0>         0.1394
     43 H17        -3.9280    7.9612    9.5183 H         1 <0>         0.1378
     44 H18        -5.3918   10.3307    8.4119 H         1 <0>         0.2296
@<TRIPOS>BOND
     1    1    2 1
     2    1   28 1
     3    1   29 1
     4    1   30 1
     5    2    3 1
     6    2   31 1
     7    2   32 1
     8    3    4 1
     9    4    5 2
    10    4    6 1
    11    6   11 ar
    12    6    7 ar
    13    7    8 ar
    14    7   33 1
    15    8    9 ar
    16    8   34 1
    17    9   10 ar
    18    9   12 1
    19   10   11 ar
    20   10   35 1
    21   11   36 1
    22   12   18 am
    23   12   13 am
    24   13   14 2
    25   13   15 1
    26   15   16 1
    27   15   37 1
    28   15   38 1
    29   16   17 1
    30   16   18 1
    31   16   20 1
    32   18   19 2
    33   20   21 1
    34   20   39 1
    35   21   26 ar
    36   21   22 ar
    37   22   23 ar
    38   22   40 1
    39   23   24 ar
    40   23   41 1
    41   24   25 ar
    42   24   42 1
    43   25   26 ar
    44   25   27 1
    45   26   43 1
    46   27   44 1
@<TRIPOS>MOLECULE
ZINC00892399
   44    46     0     0     0
SMALL
USER_CHARGES

@<TRIPOS>ATOM
      1 C1         -6.5297    6.6427    2.3408 C.3       1 <0>        -0.2156
      2 C2         -6.3561    5.8335    1.0539 C.3       1 <0>        -0.0037
      3 O1         -5.1089    5.0923    1.1127 O.3       1 <0>        -0.2688
      4 C3         -4.8037    4.3233    0.0493 C.2       1 <0>         0.3501
      5 O2         -5.5589    4.2734   -0.9011 O.2       1 <0>        -0.3589
      6 C4         -3.5525    3.5420    0.0390 C.ar      1 <0>        -0.1049
      7 C5         -3.2341    2.7436   -1.0633 C.ar      1 <0>        -0.0580
      8 C6         -2.0651    2.0161   -1.0695 C.ar      1 <0>        -0.1233
      9 C7         -1.2017    2.0749    0.0192 C.ar      1 <0>         0.0665
     10 C8         -1.5176    2.8640    1.1200 C.ar      1 <0>        -0.1268
     11 C9         -2.6822    3.5985    1.1312 C.ar      1 <0>        -0.0716
     12 N1         -0.0161    1.3346    0.0094 N.am      1 <0>        -0.2767
     13 C10         1.1939    1.9050   -0.0440 C.2       1 <0>         0.3123
     14 O3          1.4066    3.0977   -0.0852 O.2       1 <0>        -0.2911
     15 C11         2.2538    0.8251   -0.0458 C.3       1 <0>        -0.2150
     16 C12         1.4379   -0.4822    0.0165 C.3       1 <0>         0.0121
     17 H1          1.6747   -1.0423    0.9212 H         1 <0>         0.1396
     18 C13         0.0028   -0.0036    0.0470 C.2       1 <0>         0.2870
     19 O4         -0.9749   -0.7184    0.0970 O.2       1 <0>        -0.2727
     20 N2          1.6834   -1.3004   -1.1736 N.pl3     1 <0>        -0.3672
     21 C14         1.4123   -2.6703   -1.1474 C.ar      1 <0>         0.1231
     22 C15         0.9151   -3.2592    0.0090 C.ar      1 <0>        -0.1968
     23 C16         0.6417   -4.6128    0.0329 C.ar      1 <0>        -0.0702
     24 C17         0.8724   -5.3871   -1.0886 C.ar      1 <0>        -0.1986
     25 C18         1.3742   -4.8056   -2.2444 C.ar      1 <0>         0.1123
     26 C19         1.6445   -3.4464   -2.2744 C.ar      1 <0>        -0.2243
     27 O5          1.6000   -5.5682   -3.3463 O.3       1 <0>        -0.2914
     28 H2         -6.5489    5.9664    3.1954 H         1 <0>         0.0861
     29 H3         -5.6979    7.3390    2.4471 H         1 <0>         0.0863
     30 H4         -7.4660    7.1991    2.2967 H         1 <0>         0.0902
     31 H5         -6.3370    6.5098    0.1993 H         1 <0>         0.0903
     32 H6         -7.1880    5.1372    0.9476 H         1 <0>         0.0905
     33 H7         -3.9040    2.6978   -1.9092 H         1 <0>         0.1626
     34 H8         -1.8186    1.3988   -1.9207 H         1 <0>         0.1489
     35 H9         -0.8466    2.9039    1.9653 H         1 <0>         0.1441
     36 H10        -2.9247    4.2145    1.9845 H         1 <0>         0.1549
     37 H11         2.8973    0.9178    0.8291 H         1 <0>         0.1356
     38 H12         2.8444    0.8654   -0.9610 H         1 <0>         0.1341
     39 H13         2.0342   -0.8908   -1.9799 H         1 <0>         0.2364
     40 H14         0.7385   -2.6573    0.8882 H         1 <0>         0.1339
     41 H15         0.2507   -5.0679    0.9309 H         1 <0>         0.1344
     42 H16         0.6621   -6.4462   -1.0653 H         1 <0>         0.1395
     43 H17         2.0354   -2.9922   -3.1729 H         1 <0>         0.1377
     44 H18         2.4890   -5.9466   -3.3873 H         1 <0>         0.2277
@<TRIPOS>BOND
     1    1    2 1
     2    1   28 1
     3    1   29 1
     4    1   30 1
     5    2    3 1
     6    2   31 1
     7    2   32 1
     8    3    4 1
     9    4    5 2
    10    4    6 1
    11    6   11 ar
    12    6    7 ar
    13    7    8 ar
    14    7   33 1
    15    8    9 ar
    16    8   34 1
    17    9   10 ar
    18    9   12 1
    19   10   11 ar
    20   10   35 1
    21   11   36 1
    22   12   18 am
    23   12   13 am
    24   13   14 2
    25   13   15 1
    26   15   16 1
    27   15   37 1
    28   15   38 1
    29   16   17 1
    30   16   18 1
    31   16   20 1
    32   18   19 2
    33   20   21 1
    34   20   39 1
    35   21   26 ar
    36   21   22 ar
    37   22   23 ar
    38   22   40 1
    39   23   24 ar
    40   23   41 1
    41   24   25 ar
    42   24   42 1
    43   25   26 ar
    44   25   27 1
    45   26   43 1
    46   27   44 1
@<TRIPOS>MOLECULE
ZINC00892400
   44    46     0     0     0
SMALL
USER_CHARGES

@<TRIPOS>ATOM
      1 C1          0.4885    0.3058   -2.2198 C.3       1 <0>        -0.2156
      2 C2          0.2229   -0.5351   -0.9695 C.3       1 <0>        -0.0037
      3 O1         -1.1238   -1.0751   -1.0266 O.3       1 <0>        -0.2687
      4 C3         -1.5186   -1.8447    0.0066 C.2       1 <0>         0.3502
      5 O2         -0.7584   -2.0586    0.9300 O.2       1 <0>        -0.3593
      6 C4         -2.8736   -2.4274    0.0167 C.ar      1 <0>        -0.1051
      7 C5         -3.7516   -2.1777   -1.0419 C.ar      1 <0>        -0.0708
      8 C6         -5.0142   -2.7270   -1.0310 C.ar      1 <0>        -0.1264
      9 C7         -5.4198   -3.5210    0.0363 C.ar      1 <0>         0.0676
     10 C8         -4.5508   -3.7678    1.0937 C.ar      1 <0>        -0.1245
     11 C9         -3.2850   -3.2260    1.0876 C.ar      1 <0>        -0.0580
     12 N1         -6.7040   -4.0728    0.0461 N.am      1 <0>        -0.2772
     13 C10        -6.9280   -5.3886   -0.0569 C.2       1 <0>         0.3114
     14 O3         -6.0722   -6.2399   -0.1684 O.2       1 <0>        -0.2905
     15 C11        -8.4186   -5.6449   -0.0126 C.3       1 <0>        -0.2159
     16 C12        -9.0237   -4.2340    0.1355 C.3       1 <0>         0.0119
     17 H1         -9.6636   -3.9998   -0.7153 H         1 <0>         0.1419
     18 C13        -7.8111   -3.3294    0.1649 C.2       1 <0>         0.2873
     19 O4         -7.8379   -2.1225    0.2758 O.2       1 <0>        -0.2762
     20 N2         -9.7741   -4.1237    1.3888 N.pl3     1 <0>        -0.3677
     21 C14       -10.8056   -3.1854    1.5065 C.ar      1 <0>         0.1038
     22 C15       -11.1145   -2.3548    0.4374 C.ar      1 <0>        -0.1769
     23 C16       -12.1362   -1.4327    0.5526 C.ar      1 <0>        -0.1069
     24 C17       -12.8467   -1.3290    1.7393 C.ar      1 <0>         0.0233
     25 C18       -12.5351   -2.1543    2.8096 C.ar      1 <0>        -0.1090
     26 C19       -11.5172   -3.0805    2.6943 C.ar      1 <0>        -0.1826
     27 O5        -13.8493   -0.4171    1.8536 O.3       1 <0>        -0.2901
     28 H2          1.4994    0.7112   -2.1769 H         1 <0>         0.0903
     29 H3          0.3850   -0.3192   -3.1068 H         1 <0>         0.0861
     30 H4         -0.2296    1.1245   -2.2663 H         1 <0>         0.0864
     31 H5          0.9410   -1.3538   -0.9230 H         1 <0>         0.0903
     32 H6          0.3264    0.0899   -0.0825 H         1 <0>         0.0904
     33 H7         -3.4387   -1.5578   -1.8691 H         1 <0>         0.1552
     34 H8         -5.6918   -2.5375   -1.8503 H         1 <0>         0.1444
     35 H9         -4.8693   -4.3849    1.9208 H         1 <0>         0.1465
     36 H10        -2.6109   -3.4175    1.9095 H         1 <0>         0.1621
     37 H11        -8.7553   -6.1115   -0.9383 H         1 <0>         0.1366
     38 H12        -8.6756   -6.2670    0.8448 H         1 <0>         0.1344
     39 H13        -9.5560   -4.7011    2.1371 H         1 <0>         0.2358
     40 H14       -10.5587   -2.4327   -0.4853 H         1 <0>         0.1341
     41 H15       -12.3791   -0.7892   -0.2800 H         1 <0>         0.1411
     42 H16       -13.0884   -2.0723    3.7334 H         1 <0>         0.1407
     43 H17       -11.2749   -3.7234    3.5277 H         1 <0>         0.1313
     44 H18       -13.5606    0.4460    2.1804 H         1 <0>         0.2217
@<TRIPOS>BOND
     1    1    2 1
     2    1   28 1
     3    1   29 1
     4    1   30 1
     5    2    3 1
     6    2   31 1
     7    2   32 1
     8    3    4 1
     9    4    5 2
    10    4    6 1
    11    6   11 ar
    12    6    7 ar
    13    7    8 ar
    14    7   33 1
    15    8    9 ar
    16    8   34 1
    17    9   10 ar
    18    9   12 1
    19   10   11 ar
    20   10   35 1
    21   11   36 1
    22   12   18 am
    23   12   13 am
    24   13   14 2
    25   13   15 1
    26   15   16 1
    27   15   37 1
    28   15   38 1
    29   16   17 1
    30   16   18 1
    31   16   20 1
    32   18   19 2
    33   20   21 1
    34   20   39 1
    35   21   26 ar
    36   21   22 ar
    37   22   23 ar
    38   22   40 1
    39   23   24 ar
    40   23   41 1
    41   24   25 ar
    42   24   27 1
    43   25   26 ar
    44   25   42 1
    45   26   43 1
    46   27   44 1
@<TRIPOS>MOLECULE
ZINC00892402
   44    46     0     0     0
SMALL
USER_CHARGES

@<TRIPOS>ATOM
      1 C1          3.0784    1.6546    0.6905 C.3       1 <0>        -0.2156
      2 C2          1.6559    1.1129    0.8451 C.3       1 <0>        -0.0037
      3 O1          1.0925    1.5830    2.0981 O.3       1 <0>        -0.2688
      4 C3         -0.1641    1.1927    2.3883 C.2       1 <0>         0.3501
      5 O2         -0.7724    0.4792    1.6156 O.2       1 <0>        -0.3590
      6 C4         -0.8012    1.6318    3.6442 C.ar      1 <0>        -0.1049
      7 C5         -0.1009    2.4480    4.5371 C.ar      1 <0>        -0.0714
      8 C6         -0.7013    2.8608    5.7054 C.ar      1 <0>        -0.1268
      9 C7         -1.9982    2.4567    6.0035 C.ar      1 <0>         0.0666
     10 C8         -2.6960    1.6399    5.1203 C.ar      1 <0>        -0.1235
     11 C9         -2.1047    1.2280    3.9471 C.ar      1 <0>        -0.0581
     12 N1         -2.6019    2.8727    7.1935 N.am      1 <0>        -0.2769
     13 C10        -2.1827    2.4678    8.3987 C.2       1 <0>         0.3117
     14 O3         -1.2560    1.7135    8.6029 O.2       1 <0>        -0.2915
     15 C11        -3.0487    3.1011    9.4657 C.3       1 <0>        -0.2159
     16 C12        -4.0517    3.9514    8.6596 C.3       1 <0>         0.0115
     17 H1         -3.9513    5.0066    8.9137 H         1 <0>         0.1404
     18 C13        -3.6434    3.7135    7.2221 C.2       1 <0>         0.2864
     19 O4         -4.1765    4.2042    6.2503 O.2       1 <0>        -0.2725
     20 N2         -5.4230    3.4937    8.8967 N.pl3     1 <0>        -0.3676
     21 C14        -6.4951    4.3763    8.7233 C.ar      1 <0>         0.1035
     22 C15        -6.2590    5.6876    8.3320 C.ar      1 <0>        -0.1772
     23 C16        -7.3180    6.5565    8.1559 C.ar      1 <0>        -0.1064
     24 C17        -8.6162    6.1227    8.3801 C.ar      1 <0>         0.0232
     25 C18        -8.8525    4.8147    8.7764 C.ar      1 <0>        -0.1090
     26 C19        -7.7950    3.9429    8.9479 C.ar      1 <0>        -0.1832
     27 O5         -9.6581    6.9804    8.2115 O.3       1 <0>        -0.2880
     28 H2          3.6930    1.3037    1.5196 H         1 <0>         0.0862
     29 H3          3.5014    1.3017   -0.2501 H         1 <0>         0.0902
     30 H4          3.0544    2.7443    0.6919 H         1 <0>         0.0862
     31 H5          1.0414    1.4638    0.0161 H         1 <0>         0.0905
     32 H6          1.6800    0.0232    0.8437 H         1 <0>         0.0903
     33 H7          0.9081    2.7580    4.3087 H         1 <0>         0.1550
     34 H8         -0.1624    3.4951    6.3937 H         1 <0>         0.1442
     35 H9         -3.7030    1.3280    5.3551 H         1 <0>         0.1482
     36 H10        -2.6474    0.5940    3.2615 H         1 <0>         0.1624
     37 H11        -3.5699    2.3359   10.0410 H         1 <0>         0.1343
     38 H12        -2.4494    3.7334   10.1208 H         1 <0>         0.1355
     39 H13        -5.5880    2.5789    9.1738 H         1 <0>         0.2359
     40 H14        -5.2479    6.0267    8.1614 H         1 <0>         0.1347
     41 H15        -7.1349    7.5751    7.8473 H         1 <0>         0.1415
     42 H16        -9.8636    4.4777    8.9507 H         1 <0>         0.1407
     43 H17        -7.9792    2.9246    9.2568 H         1 <0>         0.1312
     44 H18        -9.8948    7.4733    9.0091 H         1 <0>         0.2196
@<TRIPOS>BOND
     1    1    2 1
     2    1   28 1
     3    1   29 1
     4    1   30 1
     5    2    3 1
     6    2   31 1
     7    2   32 1
     8    3    4 1
     9    4    5 2
    10    4    6 1
    11    6   11 ar
    12    6    7 ar
    13    7    8 ar
    14    7   33 1
    15    8    9 ar
    16    8   34 1
    17    9   10 ar
    18    9   12 1
    19   10   11 ar
    20   10   35 1
    21   11   36 1
    22   12   18 am
    23   12   13 am
    24   13   14 2
    25   13   15 1
    26   15   16 1
    27   15   37 1
    28   15   38 1
    29   16   17 1
    30   16   18 1
    31   16   20 1
    32   18   19 2
    33   20   21 1
    34   20   39 1
    35   21   26 ar
    36   21   22 ar
    37   22   23 ar
    38   22   40 1
    39   23   24 ar
    40   23   41 1
    41   24   25 ar
    42   24   27 1
    43   25   26 ar
    44   25   42 1
    45   26   43 1
    46   27   44 1
@<TRIPOS>MOLECULE
ZINC00894595
   41    43     0     0     0
SMALL
USER_CHARGES

@<TRIPOS>ATOM
      1 C1         -4.5455    4.2218    9.6190 C.3       1 <0>        -0.0335
      2 O1         -3.5381    3.5964    8.7811 O.3       1 <0>        -0.2752
      3 C2         -3.7162    3.6752    7.4488 C.2       1 <0>         0.4047
      4 O2         -4.6871    4.2508    6.9986 O.2       1 <0>        -0.4030
      5 N1         -2.8178    3.1156    6.6145 N.am      1 <0>        -0.3139
      6 C3         -3.0515    3.1122    5.2346 C.ar      1 <0>         0.1328
      7 C4         -3.6912    4.1888    4.6347 C.ar      1 <0>        -0.1517
      8 C5         -3.9200    4.1827    3.2726 C.ar      1 <0>        -0.0081
      9 C6         -3.5124    3.1061    2.5064 C.ar      1 <0>        -0.7765
     10 C7         -2.8802    2.0300    3.1017 C.ar      1 <0>        -0.0050
     11 C8         -2.6438    2.0324    4.4625 C.ar      1 <0>        -0.1829
     12 S1         -3.8056    3.1024    0.7690 S.o2      1 <0>         2.7639
     13 O3         -4.9033    3.9754    0.5405 O.2       1 <0>        -0.9098
     14 O4         -3.8174    1.7410    0.3620 O.2       1 <0>        -0.9134
     15 N2         -2.4879    3.8003    0.0486 N.pl3     1 <0>        -0.8057
     16 C9         -1.2245    3.2363    0.2117 C.ar      1 <0>         0.0755
     17 C10        -1.0777    1.8671    0.2820 C.ar      1 <0>        -0.1881
     18 C11         0.1791    1.2942    0.4502 C.ar      1 <0>        -0.1008
     19 C12         1.2975    2.0659    0.5390 C.ar      1 <0>        -0.1350
     20 C13         1.1922    3.4652    0.4661 C.ar      1 <0>        -0.0185
     21 C14        -0.0825    4.0609    0.3004 C.ar      1 <0>        -0.0513
     22 C15        -0.1859    5.4587    0.2265 C.ar      1 <0>        -0.1147
     23 C16         0.9372    6.2233    0.3160 C.ar      1 <0>        -0.1244
     24 C17         2.1914    5.6386    0.4794 C.ar      1 <0>        -0.1213
     25 C18         2.3296    4.2867    0.5542 C.ar      1 <0>        -0.1166
     26 H1         -4.5962    5.2869    9.3928 H         1 <0>         0.0854
     27 H2         -5.5151    3.7628    9.4256 H         1 <0>         0.0878
     28 H3         -4.2817    4.0853   10.6678 H         1 <0>         0.1073
     29 H4         -2.0092    2.7151    6.9704 H         1 <0>         0.2455
     30 H5         -4.0092    5.0302    5.2324 H         1 <0>         0.1740
     31 H6         -4.4175    5.0197    2.8054 H         1 <0>         0.1540
     32 H7         -2.5672    1.1886    2.5013 H         1 <0>         0.1533
     33 H8         -2.1457    1.1938    4.9261 H         1 <0>         0.1389
     34 H9         -2.5957    4.6018   -0.4870 H         1 <0>         0.2548
     35 H10        -1.9485    1.2323    0.2099 H         1 <0>         0.1810
     36 H11         0.2696    0.2194    0.5069 H         1 <0>         0.1344
     37 H12         2.2650    1.6027    0.6650 H         1 <0>         0.1335
     38 H13        -1.1516    5.9254    0.0999 H         1 <0>         0.1286
     39 H14         0.8547    7.2987    0.2592 H         1 <0>         0.1301
     40 H15         3.0668    6.2674    0.5474 H         1 <0>         0.1298
     41 H16         3.3081    3.8472    0.6802 H         1 <0>         0.1345
@<TRIPOS>BOND
     1    1    2 1
     2    1   26 1
     3    1   27 1
     4    1   28 1
     5    2    3 1
     6    3    4 2
     7    3    5 am
     8    5    6 1
     9    5   29 1
    10    6   11 ar
    11    6    7 ar
    12    7    8 ar
    13    7   30 1
    14    8    9 ar
    15    8   31 1
    16    9   10 ar
    17    9   12 1
    18   10   11 ar
    19   10   32 1
    20   11   33 1
    21   12   13 2
    22   12   14 2
    23   12   15 1
    24   15   16 1
    25   15   34 1
    26   16   21 ar
    27   16   17 ar
    28   17   18 ar
    29   17   35 1
    30   18   19 ar
    31   18   36 1
    32   19   20 ar
    33   19   37 1
    34   20   25 ar
    35   20   21 ar
    36   21   22 ar
    37   22   23 ar
    38   22   38 1
    39   23   24 ar
    40   23   39 1
    41   24   25 ar
    42   24   40 1
    43   25   41 1
@<TRIPOS>MOLECULE
ZINC00899089
   43    46     0     0     0
SMALL
USER_CHARGES

@<TRIPOS>ATOM
      1 C1         -0.0789    1.6242   -0.0235 C.3       1 <0>        -0.1736
      2 C2         -0.0209    0.1185   -0.0063 C.2       1 <0>        -0.1229
      3 C3          0.0134   -0.5227    1.1356 C.2       1 <0>        -0.1993
      4 C4         -0.0023   -0.6498   -1.3026 C.3       1 <0>         0.0648
      5 H1          0.1854   -1.7078   -1.1199 H         1 <0>         0.1113
      6 C5         -1.3285   -0.4540   -2.0745 C.3       1 <0>        -0.1326
      7 C6         -0.8514   -0.4266   -3.5139 C.ar      1 <0>        -0.2348
      8 C7          0.5275   -0.2284   -3.4833 C.ar      1 <0>         0.1514
      9 C8          1.2387   -0.1716   -4.6785 C.ar      1 <0>        -0.1972
     10 C9          0.5846   -0.3046   -5.8921 C.ar      1 <0>         0.1569
     11 C10        -0.8077   -0.4975   -5.9128 C.ar      1 <0>        -0.2706
     12 C11        -1.5239   -0.5573   -4.7095 C.ar      1 <0>         0.2112
     13 O1         -2.8682   -0.7434   -4.7217 O.3       1 <0>        -0.2676
     14 C12        -1.4821   -0.6339   -7.2129 C.2       1 <0>         0.2931
     15 O2         -2.6890   -0.8012   -7.2872 O.2       1 <0>        -0.2798
     16 C13        -0.6743   -0.5630   -8.3776 C.2       1 <0>        -0.1024
     17 C14         0.6691   -0.3743   -8.2498 C.2       1 <0>         0.1075
     18 O3          1.2699   -0.2504   -7.0541 O.3       1 <0>        -0.1119
     19 C15         1.4947   -0.3023   -9.4694 C.ar      1 <0>        -0.0607
     20 C16         1.3557   -1.2706  -10.4677 C.ar      1 <0>        -0.0694
     21 C17         2.1239   -1.1979  -11.6098 C.ar      1 <0>        -0.1527
     22 C18         3.0449   -0.1715  -11.7665 C.ar      1 <0>         0.0683
     23 C19         3.1933    0.7941  -10.7725 C.ar      1 <0>         0.0356
     24 C20         2.4223    0.7313   -9.6275 C.ar      1 <0>        -0.1087
     25 O4          4.0968    1.7983  -10.9296 O.3       1 <0>        -0.2738
     26 O5          3.8040   -0.1080  -12.8916 O.3       1 <0>        -0.2764
     27 O6         -1.2363   -0.6829   -9.6112 O.3       1 <0>        -0.2541
     28 O7          0.9753   -0.1038   -2.2039 O.3       1 <0>        -0.1828
     29 H2          0.9339    2.0268   -0.0364 H         1 <0>         0.0950
     30 H3         -0.6135    1.9571   -0.9132 H         1 <0>         0.0826
     31 H4         -0.5993    1.9780    0.8665 H         1 <0>         0.0809
     32 H5          0.0550   -1.6018    1.1480 H         1 <0>         0.1154
     33 H6          0.0001    0.0279    2.0646 H         1 <0>         0.1236
     34 H7         -2.0056   -1.2910   -1.9043 H         1 <0>         0.1149
     35 H8         -1.8021    0.4893   -1.8025 H         1 <0>         0.1085
     36 H9          2.3082   -0.0225   -4.6594 H         1 <0>         0.1593
     37 H10        -3.3786    0.0773   -4.7529 H         1 <0>         0.2450
     38 H11         0.6429   -2.0729  -10.3464 H         1 <0>         0.1613
     39 H12         2.0122   -1.9440  -12.3826 H         1 <0>         0.1516
     40 H13         2.5363    1.4790   -8.8565 H         1 <0>         0.1529
     41 H14         4.9768    1.5931  -10.5855 H         1 <0>         0.2242
     42 H15         4.6424   -0.5857  -12.8279 H         1 <0>         0.2277
     43 H16        -1.5191    0.1571   -9.9980 H         1 <0>         0.2282
@<TRIPOS>BOND
     1    1    2 1
     2    1   29 1
     3    1   30 1
     4    1   31 1
     5    2    3 2
     6    2    4 1
     7    3   32 1
     8    3   33 1
     9    4    5 1
    10    4   28 1
    11    4    6 1
    12    6    7 1
    13    6   34 1
    14    6   35 1
    15    7   12 ar
    16    7    8 ar
    17    8    9 ar
    18    8   28 1
    19    9   10 ar
    20    9   36 1
    21   10   18 1
    22   10   11 ar
    23   11   12 ar
    24   11   14 1
    25   12   13 1
    26   13   37 1
    27   14   15 2
    28   14   16 1
    29   16   17 2
    30   16   27 1
    31   17   18 1
    32   17   19 1
    33   19   24 ar
    34   19   20 ar
    35   20   21 ar
    36   20   38 1
    37   21   22 ar
    38   21   39 1
    39   22   23 ar
    40   22   26 1
    41   23   24 ar
    42   23   25 1
    43   24   40 1
    44   25   41 1
    45   26   42 1
    46   27   43 1
@<TRIPOS>MOLECULE
ZINC00899378
   42    44     0     0     0
SMALL
USER_CHARGES

@<TRIPOS>ATOM
      1 C1          0.8052   -6.2422   -2.6665 C.3       1 <0>        -0.2057
      2 C2          0.8371   -4.7383   -2.5753 C.2       1 <0>         0.2934
      3 O1          0.4037   -4.0687   -3.4829 O.2       1 <0>        -0.3407
      4 O2          1.3469   -4.1427   -1.4858 O.3       1 <0>        -0.2509
      5 C3          1.3452   -2.6908   -1.4667 C.3       1 <0>        -0.0212
      6 H1          0.5809   -2.3511   -2.0148 H         1 <0>         0.1336
      7 C4          1.2256   -2.1871   -0.0209 C.3       1 <0>         0.0927
      8 H2          0.3029   -2.5639    0.4205 H         1 <0>         0.1503
      9 O3          2.3416   -2.6545    0.7365 O.3       1 <0>        -0.1911
     10 C5          3.5900   -2.4234    0.2642 C.ar      1 <0>         0.1623
     11 C6          4.6673   -2.4239    1.1327 C.ar      1 <0>        -0.2148
     12 C7          5.9508   -2.1940    0.6555 C.ar      1 <0>         0.1291
     13 C8          6.1734   -1.9621   -0.6992 C.ar      1 <0>        -0.0382
     14 C9          5.1074   -1.9561   -1.5854 C.ar      1 <0>         0.1609
     15 C10         3.8081   -2.1820   -1.1047 C.ar      1 <0>        -0.2612
     16 C11         2.6594   -2.1648   -2.0172 C.2       1 <0>         0.2589
     17 O4          2.7543   -1.7510   -3.1543 O.2       1 <0>        -0.2279
     18 O5          5.3184   -1.7336   -2.9076 O.3       1 <0>        -0.2544
     19 O6          7.4381   -1.7417   -1.1537 O.3       1 <0>        -0.2019
     20 C12         8.1904   -2.8868   -1.5595 C.3       1 <0>        -0.0575
     21 O7          6.9991   -2.1958    1.5183 O.3       1 <0>        -0.2729
     22 C13         1.2080   -0.6802   -0.0131 C.ar      1 <0>        -0.1471
     23 C14         2.2135    0.0184    0.6293 C.ar      1 <0>        -0.0922
     24 C15         2.2000    1.3997    0.6375 C.ar      1 <0>        -0.1459
     25 C16         1.1764    2.0860    0.0003 C.ar      1 <0>         0.0867
     26 C17         0.1689    1.3827   -0.6440 C.ar      1 <0>        -0.1493
     27 C18         0.1868    0.0014   -0.6489 C.ar      1 <0>        -0.0982
     28 O8          1.1611    3.4449    0.0066 O.3       1 <0>        -0.2923
     29 H3          0.2117   -6.6436   -1.8450 H         1 <0>         0.1079
     30 H4          0.3593   -6.5393   -3.6158 H         1 <0>         0.1207
     31 H5          1.8214   -6.6316   -2.6048 H         1 <0>         0.1072
     32 H6          4.5091   -2.6035    2.1858 H         1 <0>         0.1625
     33 H7          5.4824   -2.5369   -3.4203 H         1 <0>         0.2370
     34 H8          8.2970   -3.5691   -0.7162 H         1 <0>         0.0501
     35 H9          7.6709   -3.3932   -2.3731 H         1 <0>         0.0525
     36 H10         9.1771   -2.5717   -1.8989 H         1 <0>         0.1122
     37 H11         7.4093   -3.0634    1.6370 H         1 <0>         0.2338
     38 H12         3.0099   -0.5163    1.1255 H         1 <0>         0.1496
     39 H13         2.9832    1.9449    1.1432 H         1 <0>         0.1480
     40 H14        -0.6290    1.9147   -1.1407 H         1 <0>         0.1454
     41 H15        -0.5975   -0.5465   -1.1500 H         1 <0>         0.1353
     42 H16         1.6277    3.8469   -0.7389 H         1 <0>         0.2336
@<TRIPOS>BOND
     1    1    2 1
     2    1   29 1
     3    1   30 1
     4    1   31 1
     5    2    3 2
     6    2    4 1
     7    4    5 1
     8    5    6 1
     9    5   16 1
    10    5    7 1
    11    7    8 1
    12    7    9 1
    13    7   22 1
    14    9   10 1
    15   10   15 ar
    16   10   11 ar
    17   11   12 ar
    18   11   32 1
    19   12   13 ar
    20   12   21 1
    21   13   14 ar
    22   13   19 1
    23   14   15 ar
    24   14   18 1
    25   15   16 1
    26   16   17 2
    27   18   33 1
    28   19   20 1
    29   20   34 1
    30   20   35 1
    31   20   36 1
    32   21   37 1
    33   22   27 ar
    34   22   23 ar
    35   23   24 ar
    36   23   38 1
    37   24   25 ar
    38   24   39 1
    39   25   26 ar
    40   25   28 1
    41   26   27 ar
    42   26   40 1
    43   27   41 1
    44   28   42 1
@<TRIPOS>MOLECULE
ZINC00902552
   44    46     0     0     0
SMALL
USER_CHARGES

@<TRIPOS>ATOM
      1 C1          1.2703   -1.5017   -0.0716 C.3       1 <0>        -0.2021
      2 C2          0.8447   -0.0572   -0.1290 C.ar      1 <0>         0.0356
      3 C3          1.7059    0.8948   -0.6453 C.ar      1 <0>        -0.1571
      4 C4          1.3217    2.2188   -0.7007 C.ar      1 <0>        -0.0700
      5 C5          0.0629    2.5968   -0.2343 C.ar      1 <0>        -0.0568
      6 C6         -0.8006    1.6329    0.2844 C.ar      1 <0>         0.0119
      7 C7         -0.4053    0.3116    0.3343 C.ar      1 <0>        -0.7635
      8 S1         -1.4954   -0.9082    0.9890 S.o2      1 <0>         2.7654
      9 O1         -2.6602   -0.2203    1.4241 O.2       1 <0>        -0.9113
     10 O2         -1.5440   -1.9622    0.0372 O.2       1 <0>        -0.9195
     11 N1         -0.7774   -1.5287    2.3460 N.pl3     1 <0>        -0.8809
     12 C8         -0.4946   -0.6569    3.4890 C.3       1 <0>         0.0426
     13 C9         -1.6785   -0.6858    4.4577 C.3       1 <0>        -0.2327
     14 C10         0.7638   -1.1490    4.2067 C.3       1 <0>        -0.2206
     15 C11        -0.3557    4.0171   -0.2912 C.ar      1 <0>        -0.0448
     16 C12        -0.0346    4.8332   -1.4710 C.ar      1 <0>        -0.0241
     17 C13         0.6626    4.3095   -2.5587 C.ar      1 <0>        -0.1153
     18 C14         0.9388    5.1153   -3.6412 C.ar      1 <0>        -0.1073
     19 C15         0.5306    6.4426   -3.6604 C.ar      1 <0>        -0.1113
     20 C16        -0.1588    6.9812   -2.5964 C.ar      1 <0>        -0.1202
     21 C17        -0.4492    6.1829   -1.4907 C.ar      1 <0>        -0.1586
     22 C18        -1.1816    6.7034   -0.3289 C.ar      1 <0>         0.1413
     23 O3         -1.5579    7.8615   -0.3029 O.3       1 <0>        -0.1638
     24 N2         -1.4308    5.8787    0.7088 N.ar      1 <0>        -0.1435
     25 H1         -1.2869    8.3191   -1.1498 H         1 <0>         0.2606
     26 N3         -1.0163    4.5465    0.7065 N.ar      1 <0>        -0.0137
     27 H2          0.8816   -2.0298   -0.9424 H         1 <0>         0.1222
     28 H3          2.3588   -1.5600   -0.0673 H         1 <0>         0.0888
     29 H4          0.8783   -1.9602    0.8362 H         1 <0>         0.0849
     30 H5          2.6805    0.6010   -1.0058 H         1 <0>         0.1378
     31 H6          1.9947    2.9610   -1.1040 H         1 <0>         0.1399
     32 H7         -1.7786    1.9190    0.6423 H         1 <0>         0.1758
     33 H8         -0.5441   -2.4695    2.3842 H         1 <0>         0.2430
     34 H9         -0.3372    0.3629    3.1378 H         1 <0>         0.1011
     35 H10        -1.4681   -0.0373    5.3080 H         1 <0>         0.0811
     36 H11        -2.5750   -0.3353    3.9463 H         1 <0>         0.1066
     37 H12        -1.8358   -1.7057    4.8088 H         1 <0>         0.0774
     38 H13         1.6072   -1.1284    3.5165 H         1 <0>         0.0772
     39 H14         0.9741   -0.5004    5.0570 H         1 <0>         0.0879
     40 H15         0.6065   -2.1689    4.5579 H         1 <0>         0.0792
     41 H16         0.9844    3.2787   -2.5525 H         1 <0>         0.1548
     42 H17         1.4789    4.7105   -4.4843 H         1 <0>         0.1392
     43 H18         0.7563    7.0590   -4.5181 H         1 <0>         0.1383
     44 H19        -0.4728    8.0143   -2.6187 H         1 <0>         0.1246
@<TRIPOS>BOND
     1    1    2 1
     2    1   27 1
     3    1   28 1
     4    1   29 1
     5    2    7 ar
     6    2    3 ar
     7    3    4 ar
     8    3   30 1
     9    4    5 ar
    10    4   31 1
    11    5    6 ar
    12    5   15 1
    13    6    7 ar
    14    6   32 1
    15    7    8 1
    16    8    9 2
    17    8   10 2
    18    8   11 1
    19   11   12 1
    20   11   33 1
    21   12   13 1
    22   12   14 1
    23   12   34 1
    24   13   35 1
    25   13   36 1
    26   13   37 1
    27   14   38 1
    28   14   39 1
    29   14   40 1
    30   15   16 ar
    31   15   26 ar
    32   16   17 ar
    33   16   21 ar
    34   17   18 ar
    35   17   41 1
    36   18   19 ar
    37   18   42 1
    38   19   20 ar
    39   19   43 1
    40   20   21 ar
    41   20   44 1
    42   21   22 ar
    43   22   24 ar
    44   22   23 1
    45   23   25 1
    46   24   26 ar
@<TRIPOS>MOLECULE
ZINC00902552
   44    46     0     0     0
SMALL
USER_CHARGES

@<TRIPOS>ATOM
      1 C1          1.2703   -1.5017   -0.0716 C.3       1 <0>        -0.2021
      2 C2          0.8447   -0.0572   -0.1290 C.ar      1 <0>         0.0356
      3 C3          1.7059    0.8948   -0.6453 C.ar      1 <0>        -0.1571
      4 C4          1.3217    2.2188   -0.7007 C.ar      1 <0>        -0.0700
      5 C5          0.0629    2.5968   -0.2343 C.ar      1 <0>        -0.0568
      6 C6         -0.8006    1.6329    0.2844 C.ar      1 <0>         0.0119
      7 C7         -0.4053    0.3116    0.3343 C.ar      1 <0>        -0.7635
      8 S1         -1.4954   -0.9082    0.9890 S.o2      1 <0>         2.7654
      9 O1         -2.6602   -0.2203    1.4241 O.2       1 <0>        -0.9113
     10 O2         -1.5440   -1.9622    0.0372 O.2       1 <0>        -0.9195
     11 N1         -0.7774   -1.5287    2.3460 N.pl3     1 <0>        -0.8809
     12 C8         -0.4946   -0.6569    3.4890 C.3       1 <0>         0.0426
     13 C9         -1.6785   -0.6858    4.4577 C.3       1 <0>        -0.2327
     14 C10         0.7638   -1.1490    4.2067 C.3       1 <0>        -0.2206
     15 C11        -0.3557    4.0171   -0.2912 C.ar      1 <0>        -0.0448
     16 C12        -0.0346    4.8332   -1.4710 C.ar      1 <0>        -0.0241
     17 C13         0.6626    4.3095   -2.5587 C.ar      1 <0>        -0.1153
     18 C14         0.9388    5.1153   -3.6412 C.ar      1 <0>        -0.1073
     19 C15         0.5306    6.4426   -3.6604 C.ar      1 <0>        -0.1113
     20 C16        -0.1588    6.9812   -2.5964 C.ar      1 <0>        -0.1202
     21 C17        -0.4492    6.1829   -1.4907 C.ar      1 <0>        -0.1586
     22 C18        -1.1816    6.7034   -0.3289 C.ar      1 <0>         0.1413
     23 O3         -1.5579    7.8615   -0.3029 O.3       1 <0>        -0.1638
     24 N2         -1.4308    5.8787    0.7088 N.ar      1 <0>        -0.1435
     25 H1         -1.2869    8.3191   -1.1498 H         1 <0>         0.2606
     26 N3         -1.0163    4.5465    0.7065 N.ar      1 <0>        -0.0137
     27 H2          0.8816   -2.0298   -0.9424 H         1 <0>         0.1222
     28 H3          2.3588   -1.5600   -0.0673 H         1 <0>         0.0888
     29 H4          0.8783   -1.9602    0.8362 H         1 <0>         0.0849
     30 H5          2.6805    0.6010   -1.0058 H         1 <0>         0.1378
     31 H6          1.9947    2.9610   -1.1040 H         1 <0>         0.1399
     32 H7         -1.7786    1.9190    0.6423 H         1 <0>         0.1758
     33 H8         -0.5441   -2.4695    2.3842 H         1 <0>         0.2430
     34 H9         -0.3372    0.3629    3.1378 H         1 <0>         0.1011
     35 H10        -1.4681   -0.0373    5.3080 H         1 <0>         0.0811
     36 H11        -2.5750   -0.3353    3.9463 H         1 <0>         0.1066
     37 H12        -1.8358   -1.7057    4.8088 H         1 <0>         0.0774
     38 H13         1.6072   -1.1284    3.5165 H         1 <0>         0.0772
     39 H14         0.9741   -0.5004    5.0570 H         1 <0>         0.0879
     40 H15         0.6065   -2.1689    4.5579 H         1 <0>         0.0792
     41 H16         0.9844    3.2787   -2.5525 H         1 <0>         0.1548
     42 H17         1.4789    4.7105   -4.4843 H         1 <0>         0.1392
     43 H18         0.7563    7.0590   -4.5181 H         1 <0>         0.1383
     44 H19        -0.4728    8.0143   -2.6187 H         1 <0>         0.1246
@<TRIPOS>BOND
     1    1    2 1
     2    1   27 1
     3    1   28 1
     4    1   29 1
     5    2    7 ar
     6    2    3 ar
     7    3    4 ar
     8    3   30 1
     9    4    5 ar
    10    4   31 1
    11    5    6 ar
    12    5   15 1
    13    6    7 ar
    14    6   32 1
    15    7    8 1
    16    8    9 2
    17    8   10 2
    18    8   11 1
    19   11   12 1
    20   11   33 1
    21   12   13 1
    22   12   14 1
    23   12   34 1
    24   13   35 1
    25   13   36 1
    26   13   37 1
    27   14   38 1
    28   14   39 1
    29   14   40 1
    30   15   16 ar
    31   15   26 ar
    32   16   17 ar
    33   16   21 ar
    34   17   18 ar
    35   17   41 1
    36   18   19 ar
    37   18   42 1
    38   19   20 ar
    39   19   43 1
    40   20   21 ar
    41   20   44 1
    42   21   22 ar
    43   22   24 ar
    44   22   23 1
    45   23   25 1
    46   24   26 ar
@<TRIPOS>MOLECULE
ZINC00902554
   47    49     0     0     0
SMALL
USER_CHARGES

@<TRIPOS>ATOM
      1 C1          0.6648   -3.2551   -0.4559 C.3       1 <0>        -0.2261
      2 C2          0.9857   -1.8465   -0.0269 C.ar      1 <0>         0.0351
      3 C3          2.2544   -1.3349   -0.2349 C.ar      1 <0>        -0.1539
      4 C4          2.5539   -0.0460    0.1553 C.ar      1 <0>        -0.0362
      5 C5          1.5753    0.7414    0.7613 C.ar      1 <0>        -0.0549
      6 C6          0.2985    0.2206    0.9678 C.ar      1 <0>        -0.0283
      7 C7          0.0107   -1.0700    0.5727 C.ar      1 <0>        -0.7604
      8 S1         -1.6024   -1.7298    0.8324 S.o2      1 <0>         2.7709
      9 O1         -1.4291   -2.9848    1.4761 O.2       1 <0>        -0.9206
     10 O2         -2.3825   -0.6851    1.3974 O.2       1 <0>        -0.9233
     11 N1         -2.2471   -2.0482   -0.6593 N.pl3     1 <0>        -0.8726
     12 C8         -2.5723   -0.9455   -1.5673 C.3       1 <0>         0.0841
     13 C9         -1.2899   -0.2020   -1.9465 C.3       1 <0>        -0.2377
     14 C10        -3.2312   -1.5025   -2.8308 C.3       1 <0>        -0.2091
     15 C11        -3.5352    0.0198   -0.8730 C.3       1 <0>        -0.2310
     16 C12         1.8906    2.1266    1.1826 C.ar      1 <0>        -0.0439
     17 C13         1.3663    2.6476    2.4533 C.ar      1 <0>        -0.0265
     18 C14         0.5681    1.8711    3.2921 C.ar      1 <0>        -0.1110
     19 C15         0.1016    2.4053    4.4729 C.ar      1 <0>        -0.1023
     20 C16         0.4176    3.7080    4.8364 C.ar      1 <0>        -0.1102
     21 C17         1.2038    4.4934    4.0226 C.ar      1 <0>        -0.1223
     22 C18         1.6869    3.9722    2.8230 C.ar      1 <0>        -0.1596
     23 C19         2.5299    4.7633    1.9169 C.ar      1 <0>         0.1424
     24 O3          2.8310    5.9101    2.1955 O.3       1 <0>        -0.1649
     25 N2          2.9651    4.1997    0.7715 N.ar      1 <0>        -0.1481
     26 H1          2.4227    6.1578    3.0741 H         1 <0>         0.2613
     27 N3          2.6405    2.8873    0.4269 N.ar      1 <0>        -0.0203
     28 H2          0.2834   -3.2459   -1.4769 H         1 <0>         0.0924
     29 H3          1.5682   -3.8633   -0.4110 H         1 <0>         0.0986
     30 H4         -0.0891   -3.6748    0.2100 H         1 <0>         0.1250
     31 H5          3.0115   -1.9458   -0.7040 H         1 <0>         0.1411
     32 H6          3.5446    0.3523   -0.0076 H         1 <0>         0.1538
     33 H7         -0.4649    0.8274    1.4319 H         1 <0>         0.1624
     34 H8         -2.4095   -2.9648   -0.9320 H         1 <0>         0.2432
     35 H9         -0.5408   -0.9183   -2.2837 H         1 <0>         0.0832
     36 H10        -1.5033    0.5051   -2.7480 H         1 <0>         0.0915
     37 H11        -0.9120    0.3370   -1.0776 H         1 <0>         0.0871
     38 H12        -4.1449   -2.0322   -2.5607 H         1 <0>         0.0826
     39 H13        -3.4732   -0.6820   -3.5064 H         1 <0>         0.0885
     40 H14        -2.5453   -2.1902   -3.3254 H         1 <0>         0.0770
     41 H15        -2.9978    0.5829   -0.1100 H         1 <0>         0.1104
     42 H16        -3.9512    0.7091   -1.6077 H         1 <0>         0.0787
     43 H17        -4.3424   -0.5450   -0.4068 H         1 <0>         0.0908
     44 H18         0.3168    0.8573    3.0176 H         1 <0>         0.1576
     45 H19        -0.5168    1.8045    5.1233 H         1 <0>         0.1436
     46 H20         0.0425    4.1095    5.7662 H         1 <0>         0.1385
     47 H21         1.4450    5.5055    4.3119 H         1 <0>         0.1235
@<TRIPOS>BOND
     1    1    2 1
     2    1   28 1
     3    1   29 1
     4    1   30 1
     5    2    7 ar
     6    2    3 ar
     7    3    4 ar
     8    3   31 1
     9    4    5 ar
    10    4   32 1
    11    5    6 ar
    12    5   16 1
    13    6    7 ar
    14    6   33 1
    15    7    8 1
    16    8    9 2
    17    8   10 2
    18    8   11 1
    19   11   12 1
    20   11   34 1
    21   12   13 1
    22   12   14 1
    23   12   15 1
    24   13   35 1
    25   13   36 1
    26   13   37 1
    27   14   38 1
    28   14   39 1
    29   14   40 1
    30   15   41 1
    31   15   42 1
    32   15   43 1
    33   16   17 ar
    34   16   27 ar
    35   17   18 ar
    36   17   22 ar
    37   18   19 ar
    38   18   44 1
    39   19   20 ar
    40   19   45 1
    41   20   21 ar
    42   20   46 1
    43   21   22 ar
    44   21   47 1
    45   22   23 ar
    46   23   25 ar
    47   23   24 1
    48   24   26 1
    49   25   27 ar
@<TRIPOS>MOLECULE
ZINC00902554
   47    49     0     0     0
SMALL
USER_CHARGES

@<TRIPOS>ATOM
      1 C1          0.6648   -3.2551   -0.4559 C.3       1 <0>        -0.2261
      2 C2          0.9857   -1.8465   -0.0269 C.ar      1 <0>         0.0351
      3 C3          2.2544   -1.3349   -0.2349 C.ar      1 <0>        -0.1539
      4 C4          2.5539   -0.0460    0.1553 C.ar      1 <0>        -0.0362
      5 C5          1.5753    0.7414    0.7613 C.ar      1 <0>        -0.0549
      6 C6          0.2985    0.2206    0.9678 C.ar      1 <0>        -0.0283
      7 C7          0.0107   -1.0700    0.5727 C.ar      1 <0>        -0.7604
      8 S1         -1.6024   -1.7298    0.8324 S.o2      1 <0>         2.7709
      9 O1         -1.4291   -2.9848    1.4761 O.2       1 <0>        -0.9206
     10 O2         -2.3825   -0.6851    1.3974 O.2       1 <0>        -0.9233
     11 N1         -2.2471   -2.0482   -0.6593 N.pl3     1 <0>        -0.8726
     12 C8         -2.5723   -0.9455   -1.5673 C.3       1 <0>         0.0841
     13 C9         -1.2899   -0.2020   -1.9465 C.3       1 <0>        -0.2377
     14 C10        -3.2312   -1.5025   -2.8308 C.3       1 <0>        -0.2091
     15 C11        -3.5352    0.0198   -0.8730 C.3       1 <0>        -0.2310
     16 C12         1.8906    2.1266    1.1826 C.ar      1 <0>        -0.0439
     17 C13         1.3663    2.6476    2.4533 C.ar      1 <0>        -0.0265
     18 C14         0.5681    1.8711    3.2921 C.ar      1 <0>        -0.1110
     19 C15         0.1016    2.4053    4.4729 C.ar      1 <0>        -0.1023
     20 C16         0.4176    3.7080    4.8364 C.ar      1 <0>        -0.1102
     21 C17         1.2038    4.4934    4.0226 C.ar      1 <0>        -0.1223
     22 C18         1.6869    3.9722    2.8230 C.ar      1 <0>        -0.1596
     23 C19         2.5299    4.7633    1.9169 C.ar      1 <0>         0.1424
     24 O3          2.8310    5.9101    2.1955 O.3       1 <0>        -0.1649
     25 N2          2.9651    4.1997    0.7715 N.ar      1 <0>        -0.1481
     26 H1          2.4227    6.1578    3.0741 H         1 <0>         0.2613
     27 N3          2.6405    2.8873    0.4269 N.ar      1 <0>        -0.0203
     28 H2          0.2834   -3.2459   -1.4769 H         1 <0>         0.0924
     29 H3          1.5682   -3.8633   -0.4110 H         1 <0>         0.0986
     30 H4         -0.0891   -3.6748    0.2100 H         1 <0>         0.1250
     31 H5          3.0115   -1.9458   -0.7040 H         1 <0>         0.1411
     32 H6          3.5446    0.3523   -0.0076 H         1 <0>         0.1538
     33 H7         -0.4649    0.8274    1.4319 H         1 <0>         0.1624
     34 H8         -2.4095   -2.9648   -0.9320 H         1 <0>         0.2432
     35 H9         -0.5408   -0.9183   -2.2837 H         1 <0>         0.0832
     36 H10        -1.5033    0.5051   -2.7480 H         1 <0>         0.0915
     37 H11        -0.9120    0.3370   -1.0776 H         1 <0>         0.0871
     38 H12        -4.1449   -2.0322   -2.5607 H         1 <0>         0.0826
     39 H13        -3.4732   -0.6820   -3.5064 H         1 <0>         0.0885
     40 H14        -2.5453   -2.1902   -3.3254 H         1 <0>         0.0770
     41 H15        -2.9978    0.5829   -0.1100 H         1 <0>         0.1104
     42 H16        -3.9512    0.7091   -1.6077 H         1 <0>         0.0787
     43 H17        -4.3424   -0.5450   -0.4068 H         1 <0>         0.0908
     44 H18         0.3168    0.8573    3.0176 H         1 <0>         0.1576
     45 H19        -0.5168    1.8045    5.1233 H         1 <0>         0.1436
     46 H20         0.0425    4.1095    5.7662 H         1 <0>         0.1385
     47 H21         1.4450    5.5055    4.3119 H         1 <0>         0.1235
@<TRIPOS>BOND
     1    1    2 1
     2    1   28 1
     3    1   29 1
     4    1   30 1
     5    2    7 ar
     6    2    3 ar
     7    3    4 ar
     8    3   31 1
     9    4    5 ar
    10    4   32 1
    11    5    6 ar
    12    5   16 1
    13    6    7 ar
    14    6   33 1
    15    7    8 1
    16    8    9 2
    17    8   10 2
    18    8   11 1
    19   11   12 1
    20   11   34 1
    21   12   13 1
    22   12   14 1
    23   12   15 1
    24   13   35 1
    25   13   36 1
    26   13   37 1
    27   14   38 1
    28   14   39 1
    29   14   40 1
    30   15   41 1
    31   15   42 1
    32   15   43 1
    33   16   17 ar
    34   16   27 ar
    35   17   18 ar
    36   17   22 ar
    37   18   19 ar
    38   18   44 1
    39   19   20 ar
    40   19   45 1
    41   20   21 ar
    42   20   46 1
    43   21   22 ar
    44   21   47 1
    45   22   23 ar
    46   23   25 ar
    47   23   24 1
    48   24   26 1
    49   25   27 ar
@<TRIPOS>MOLECULE
ZINC00905575
   42    44     0     0     0
SMALL
USER_CHARGES

@<TRIPOS>ATOM
      1 C1         -0.9913    3.4873   -4.4579 C.3       1 <0>        -0.2334
      2 C2         -1.4029    2.0184   -4.3400 C.3       1 <0>        -0.0355
      3 N1         -0.2255    1.2050   -4.0265 N.am      1 <0>        -0.2516
      4 C3          0.5206    0.6876   -5.0302 C.2       1 <0>         0.3490
      5 O1          0.2329    0.8837   -6.1967 O.2       1 <0>        -0.3453
      6 C4          1.6869   -0.1249   -4.6590 C.ar      1 <0>        -0.1904
      7 C5          2.5151   -0.7062   -5.6182 C.ar      1 <0>        -0.0477
      8 C6          3.5885   -1.4532   -5.2180 C.ar      1 <0>        -0.1588
      9 C7          3.8611   -1.6381   -3.8686 C.ar      1 <0>        -0.0885
     10 C8          3.0658   -1.0803   -2.9077 C.ar      1 <0>        -0.1306
     11 C9          1.9608   -0.3112   -3.2848 C.ar      1 <0>         0.0688
     12 N2          1.1503    0.2576   -2.3699 N.2       1 <0>        -0.2616
     13 C10         0.1151    0.9787   -2.7234 C.2       1 <0>        -0.0129
     14 S1         -0.8888    1.6837   -1.4584 S.3       1 <0>         0.3164
     15 C11        -0.0163    1.0801    0.0081 C.3       1 <0>        -0.3113
     16 C12        -0.7169    1.5733    1.2478 C.2       1 <0>         0.3140
     17 O2         -1.7084    2.2648    1.1496 O.2       1 <0>        -0.3384
     18 N3         -0.2416    1.2460    2.4658 N.am      1 <0>        -0.3207
     19 C13        -0.8333    1.7819    3.6149 C.ar      1 <0>         0.0697
     20 C14        -0.0517    2.0858    4.7226 C.ar      1 <0>        -0.1690
     21 C15        -0.6350    2.6198    5.8550 C.ar      1 <0>        -0.0986
     22 C16        -1.9984    2.8434    5.8933 C.ar      1 <0>        -0.1674
     23 C17        -2.7848    2.5364    4.7919 C.ar      1 <0>         0.0879
     24 C18        -2.2022    2.0053    3.6517 C.ar      1 <0>        -0.1532
     25 O3         -4.1254    2.7560    4.8313 O.3       1 <0>        -0.2861
     26 H1         -1.8673    4.0925   -4.6912 H         1 <0>         0.0909
     27 H2         -0.5602    3.8207   -3.5140 H         1 <0>         0.0862
     28 H3         -0.2531    3.5951   -5.2527 H         1 <0>         0.0952
     29 H4         -1.8340    1.6850   -5.2839 H         1 <0>         0.1271
     30 H5         -2.1411    1.9106   -3.5452 H         1 <0>         0.1046
     31 H6          2.3107   -0.5673   -6.6695 H         1 <0>         0.1536
     32 H7          4.2311   -1.9046   -5.9593 H         1 <0>         0.1351
     33 H8          4.7140   -2.2317   -3.5745 H         1 <0>         0.1325
     34 H9          3.2894   -1.2330   -1.8622 H         1 <0>         0.1429
     35 H10        -0.0095   -0.0099    0.0039 H         1 <0>         0.1395
     36 H11         1.0090    1.4498   -0.0013 H         1 <0>         0.1422
     37 H12         0.5107    0.6388    2.5457 H         1 <0>         0.2362
     38 H13         1.0133    1.9082    4.6967 H         1 <0>         0.1310
     39 H14        -0.0253    2.8592    6.7136 H         1 <0>         0.1356
     40 H15        -2.4523    3.2572    6.7816 H         1 <0>         0.1410
     41 H16        -2.8127    1.7661    2.7935 H         1 <0>         0.1740
     42 H17        -4.6376    2.0041    5.1591 H         1 <0>         0.2274
@<TRIPOS>BOND
     1    1    2 1
     2    1   26 1
     3    1   27 1
     4    1   28 1
     5    2    3 1
     6    2   29 1
     7    2   30 1
     8    3   13 1
     9    3    4 am
    10    4    5 2
    11    4    6 1
    12    6   11 ar
    13    6    7 ar
    14    7    8 ar
    15    7   31 1
    16    8    9 ar
    17    8   32 1
    18    9   10 ar
    19    9   33 1
    20   10   11 ar
    21   10   34 1
    22   11   12 1
    23   12   13 2
    24   13   14 1
    25   14   15 1
    26   15   16 1
    27   15   35 1
    28   15   36 1
    29   16   17 2
    30   16   18 am
    31   18   19 1
    32   18   37 1
    33   19   24 ar
    34   19   20 ar
    35   20   21 ar
    36   20   38 1
    37   21   22 ar
    38   21   39 1
    39   22   23 ar
    40   22   40 1
    41   23   24 ar
    42   23   25 1
    43   24   41 1
    44   25   42 1
@<TRIPOS>MOLECULE
ZINC00907969
   40    43     0     0     0
SMALL
USER_CHARGES

@<TRIPOS>ATOM
      1 C1         -1.4583    0.0976   -6.4808 C.ar      1 <0>        -0.0708
      2 C2         -2.6743   -0.3554   -6.9573 C.ar      1 <0>        -0.1481
      3 C3         -3.8499    0.0741   -6.3706 C.ar      1 <0>        -0.0234
      4 C4         -3.8096    0.9571   -5.3077 C.ar      1 <0>        -0.7690
      5 C5         -2.5938    1.4146   -4.8350 C.ar      1 <0>        -0.0386
      6 C6         -1.4180    0.9809   -5.4183 C.ar      1 <0>        -0.1514
      7 S1         -5.3081    1.5051   -4.5603 S.o2      1 <0>         2.7577
      8 O1         -6.3273    1.3602   -5.5399 O.2       1 <0>        -0.8963
      9 O2         -5.0203    2.7501   -3.9387 O.2       1 <0>        -0.8916
     10 N1         -5.6663    0.4402   -3.3436 N.pl3     1 <0>        -0.7554
     11 N2         -4.7670    0.2579   -2.2849 N.pl3     1 <0>        -0.2321
     12 C7         -5.1916    0.4289   -0.9796 C.ar      1 <0>         0.2522
     13 C8         -4.2749    0.5695    0.1021 C.ar      1 <0>        -0.2409
     14 C9         -2.8232    0.5576    0.0301 C.2       1 <0>        -0.0912
     15 C10        -2.1566    0.7087    1.1971 C.2       1 <0>        -0.2624
     16 S2         -3.4163    0.8739    2.4373 S.3       1 <0>         0.3942
     17 C11        -4.8323    0.7397    1.3946 C.ar      1 <0>        -0.1003
     18 N3         -6.1296    0.7717    1.6258 N.ar      1 <0>        -0.1908
     19 C12        -6.9282    0.6347    0.5741 C.ar      1 <0>         0.0698
     20 N4         -6.4824    0.4729   -0.6557 N.ar      1 <0>        -0.2925
     21 C13        -0.6689    0.7304    1.4002 C.3       1 <0>        -0.0795
     22 C14        -0.0014    0.1854    0.1297 C.3       1 <0>        -0.1564
     23 C15        -0.6252    0.8729   -1.0885 C.3       1 <0>        -0.1571
     24 C16        -2.0609    0.3846   -1.2812 C.3       1 <0>        -0.1144
     25 H1         -0.5397   -0.2383   -6.9390 H         1 <0>         0.1361
     26 H2         -2.7058   -1.0453   -7.7877 H         1 <0>         0.1402
     27 H3         -4.7999   -0.2798   -6.7428 H         1 <0>         0.1526
     28 H4         -2.5625    2.1078   -4.0075 H         1 <0>         0.1520
     29 H5         -0.4679    1.3352   -5.0463 H         1 <0>         0.1380
     30 H6         -6.4988   -0.0573   -3.3640 H         1 <0>         0.2640
     31 H7         -3.8467    0.0118   -2.4673 H         1 <0>         0.2756
     32 H8         -7.9960    0.6565    0.7343 H         1 <0>         0.1995
     33 H9         -0.4025    0.1040    2.2515 H         1 <0>         0.0991
     34 H10        -0.3384    1.7539    1.5773 H         1 <0>         0.1015
     35 H11        -0.1624   -0.8907    0.0647 H         1 <0>         0.0895
     36 H12         1.0680    0.3942    0.1599 H         1 <0>         0.0885
     37 H13        -0.6272    1.9519   -0.9340 H         1 <0>         0.0948
     38 H14        -0.0399    0.6364   -1.9771 H         1 <0>         0.0812
     39 H15        -2.5435    0.9700   -2.0638 H         1 <0>         0.0854
     40 H16        -2.0535   -0.6678   -1.5647 H         1 <0>         0.0902
@<TRIPOS>BOND
     1    1    6 ar
     2    1    2 ar
     3    1   25 1
     4    2    3 ar
     5    2   26 1
     6    3    4 ar
     7    3   27 1
     8    4    5 ar
     9    4    7 1
    10    5    6 ar
    11    5   28 1
    12    6   29 1
    13    7    8 2
    14    7    9 2
    15    7   10 1
    16   10   11 1
    17   10   30 1
    18   11   12 1
    19   11   31 1
    20   12   20 ar
    21   12   13 ar
    22   13   17 ar
    23   13   14 1
    24   14   24 1
    25   14   15 2
    26   15   16 1
    27   15   21 1
    28   16   17 1
    29   17   18 ar
    30   18   19 ar
    31   19   20 ar
    32   19   32 1
    33   21   22 1
    34   21   33 1
    35   21   34 1
    36   22   23 1
    37   22   35 1
    38   22   36 1
    39   23   24 1
    40   23   37 1
    41   23   38 1
    42   24   39 1
    43   24   40 1
@<TRIPOS>MOLECULE
ZINC00911865
   40    42     0     0     0
SMALL
USER_CHARGES

@<TRIPOS>ATOM
      1 C1          6.6524   -7.9823   -0.0999 C.3       1 <0>        -0.0681
      2 O1          5.6642   -6.9501   -0.0859 O.3       1 <0>        -0.1867
      3 C2          4.3627   -7.3420   -0.0753 C.ar      1 <0>         0.1936
      4 C3          4.0564   -8.6818   -0.0788 C.ar      1 <0>        -0.3071
      5 C4          2.7356   -9.1235   -0.0687 C.ar      1 <0>         0.1684
      6 C5          1.7083   -8.1889   -0.0548 C.ar      1 <0>        -0.2075
      7 C6          2.0098   -6.8488   -0.0513 C.ar      1 <0>        -0.2034
      8 C7          3.3361   -6.3637   -0.0612 C.ar      1 <0>        -0.0798
      9 N1          3.4673   -5.0174   -0.0557 N.2       1 <0>        -0.2055
     10 C8          2.4349   -4.2088   -0.0419 C.2       1 <0>        -0.0498
     11 S1          1.0583   -5.3484   -0.0269 S.3       1 <0>         0.3652
     12 N2          2.4162   -2.8233   -0.0348 N.am      1 <0>        -0.2648
     13 C9          1.2401   -2.1652   -0.0205 C.2       1 <0>         0.3453
     14 O2          0.1960   -2.7870   -0.0138 O.2       1 <0>        -0.3320
     15 C10         1.2202   -0.6855   -0.0128 C.ar      1 <0>        -0.0995
     16 C11         0.0021   -0.0041    0.0020 C.ar      1 <0>        -0.0788
     17 C12        -0.0166    1.3738    0.0096 C.ar      1 <0>        -0.0767
     18 C13         1.1828    2.0882    0.0020 C.ar      1 <0>        -0.0854
     19 C14         2.4011    1.4065   -0.0138 C.ar      1 <0>        -0.0870
     20 C15         2.4195    0.0286   -0.0209 C.ar      1 <0>        -0.1204
     21 C16         1.1629    3.5672    0.0096 C.2       1 <0>         0.3448
     22 O3          0.1032    4.1601    0.0225 O.2       1 <0>        -0.3521
     23 O4          2.3202    4.2563    0.0023 O.3       1 <0>        -0.2667
     24 C17         2.2247    5.7051    0.0105 C.3       1 <0>        -0.0509
     25 N3          2.4470  -10.4923   -0.0730 N.pl3     1 <0>        -0.4113
     26 H1          7.6459   -7.5340   -0.1073 H         1 <0>         0.1100
     27 H2          6.5409   -8.6040    0.7884 H         1 <0>         0.0679
     28 H3          6.5240   -8.5961   -0.9914 H         1 <0>         0.0679
     29 H4          4.8565   -9.4072   -0.0893 H         1 <0>         0.1385
     30 H5          0.6784   -8.5139   -0.0465 H         1 <0>         0.1389
     31 H6          3.2496   -2.3270   -0.0401 H         1 <0>         0.2531
     32 H7         -0.9258   -0.5567    0.0079 H         1 <0>         0.1662
     33 H8         -0.9591    1.9010    0.0169 H         1 <0>         0.1644
     34 H9          3.3290    1.9590   -0.0197 H         1 <0>         0.1551
     35 H10         3.3619   -0.4988   -0.0324 H         1 <0>         0.1345
     36 H11         3.2262    6.1353    0.0033 H         1 <0>         0.1053
     37 H12         1.6798    6.0384   -0.8728 H         1 <0>         0.0847
     38 H13         1.6964    6.0294    0.9071 H         1 <0>         0.0847
     39 H14         3.1689  -11.1402   -0.0830 H         1 <0>         0.2209
     40 H15         1.5250  -10.7937   -0.0659 H         1 <0>         0.2240
@<TRIPOS>BOND
     1    1    2 1
     2    1   26 1
     3    1   27 1
     4    1   28 1
     5    2    3 1
     6    3    8 ar
     7    3    4 ar
     8    4    5 ar
     9    4   29 1
    10    5    6 ar
    11    5   25 1
    12    6    7 ar
    13    6   30 1
    14    7   11 1
    15    7    8 ar
    16    8    9 1
    17    9   10 2
    18   10   11 1
    19   10   12 1
    20   12   13 am
    21   12   31 1
    22   13   14 2
    23   13   15 1
    24   15   20 ar
    25   15   16 ar
    26   16   17 ar
    27   16   32 1
    28   17   18 ar
    29   17   33 1
    30   18   19 ar
    31   18   21 1
    32   19   20 ar
    33   19   34 1
    34   20   35 1
    35   21   22 2
    36   21   23 1
    37   23   24 1
    38   24   36 1
    39   24   37 1
    40   24   38 1
    41   25   39 1
    42   25   40 1
@<TRIPOS>MOLECULE
ZINC00928787
   46    48     0     0     0
SMALL
USER_CHARGES

@<TRIPOS>ATOM
      1 C1          6.2604    0.2074   -1.8993 C.3       1 <0>        -0.2410
      2 C2          6.0016    0.4418   -0.4097 C.3       1 <0>        -0.0308
      3 N1          5.3641    1.7478   -0.2244 N.pl3     1 <0>        -0.1466
      4 C3          5.9853    2.9454    0.0451 C.2       1 <0>        -0.0334
      5 N2          5.0436    3.8553    0.1384 N.2       1 <0>        -0.0784
      6 N3          3.8928    3.3175   -0.0565 N.2       1 <0>        -0.1065
      7 C4          4.0289    2.0310   -0.2863 C.2       1 <0>        -0.2792
      8 S1          2.7309    0.8835   -0.6070 S.3       1 <0>         0.3615
      9 C5          1.3025    1.9914   -0.5167 C.2       1 <0>        -0.5141
     10 C6          0.0652    2.2978    0.3028 C.2       1 <0>         0.3294
     11 O1         -0.6744    1.4143    0.6646 O.2       1 <0>        -0.2810
     12 C7         -0.2204    3.7418    0.6493 C.3       1 <0>        -0.1565
     13 C8         -0.2498    4.5709   -0.6323 C.3       1 <0>        -0.1989
     14 C9          0.0871    3.7703   -1.9660 C.3       1 <0>        -0.2403
     15 C10         1.3389    2.9759   -1.6681 C.2       1 <0>         0.1181
     16 O2          2.3390    3.1219   -2.3289 O.3       1 <0>        -0.1668
     17 C11        -0.4942    6.0406   -0.2844 C.3       1 <0>        -0.1935
     18 C12        -1.3780    4.0667   -1.5345 C.3       1 <0>        -0.0251
     19 C13         7.4381    3.1650    0.2060 C.ar      1 <0>        -0.0199
     20 C14         7.9054    4.3087    0.8560 C.ar      1 <0>        -0.0711
     21 C15         9.2610    4.5074    1.0082 C.ar      1 <0>        -0.1544
     22 C16        10.1616    3.5770    0.5067 C.ar      1 <0>         0.0836
     23 C17         9.7010    2.4407   -0.1452 C.ar      1 <0>        -0.1546
     24 C18         8.3469    2.2320   -0.2968 C.ar      1 <0>        -0.1263
     25 O3         11.4972    3.7793    0.6537 O.3       1 <0>        -0.2909
     26 H1          5.3144    0.2299   -2.4404 H         1 <0>         0.0930
     27 H2          6.9164    0.9894   -2.2816 H         1 <0>         0.0911
     28 H3          6.7347   -0.7643   -2.0371 H         1 <0>         0.0950
     29 H4          6.9475    0.4193    0.1314 H         1 <0>         0.1198
     30 H5          5.3456   -0.3402   -0.0274 H         1 <0>         0.1164
     31 H6          3.0568    2.5164   -1.9854 H         1 <0>         0.2758
     32 H7         -1.1859    3.8126    1.1499 H         1 <0>         0.1232
     33 H8          0.5617    4.1204    1.3073 H         1 <0>         0.1174
     34 H9         -0.1315    4.4339   -1.1294 H         1 <0>         0.2443
     35 H10         0.2357    4.3592   -2.8712 H         1 <0>         0.0835
     36 H11        -0.5202    6.6313   -1.2002 H         1 <0>         0.0757
     37 H12        -1.4463    6.1371    0.2374 H         1 <0>         0.0962
     38 H13         0.3099    6.4007    0.3574 H         1 <0>         0.0856
     39 H14        -1.2038    3.0199   -1.7834 H         1 <0>         0.0961
     40 H15        -2.3304    4.1624   -1.0131 H         1 <0>         0.0235
     41 H16        -1.4035    4.6584   -2.4495 H         1 <0>         0.0580
     42 H17         7.2057    5.0350    1.2425 H         1 <0>         0.1595
     43 H18         9.6232    5.3897    1.5149 H         1 <0>         0.1478
     44 H19        10.4047    1.7193   -0.5335 H         1 <0>         0.1432
     45 H20         7.9894    1.3482   -0.8042 H         1 <0>         0.1404
     46 H21        11.9028    4.2715   -0.0731 H         1 <0>         0.2316
@<TRIPOS>BOND
     1    1    2 1
     2    1   26 1
     3    1   27 1
     4    1   28 1
     5    2    3 1
     6    2   29 1
     7    2   30 1
     8    3    7 1
     9    3    4 1
    10    4    5 2
    11    4   19 1
    12    5    6 1
    13    6    7 2
    14    7    8 1
    15    8    9 1
    16    9   15 2
    17    9   10 1
    18   10   12 1
    19   10   11 2
    20   12   13 1
    21   12   32 1
    22   12   33 1
    23   13   14 1
    24   13   17 1
    25   13   18 1
    26   14   15 1
    27   14   34 1
    28   14   35 1
    29   15   16 1
    30   16   31 1
    31   17   36 1
    32   17   37 1
    33   17   38 1
    34   18   39 1
    35   18   40 1
    36   18   41 1
    37   19   24 ar
    38   19   20 ar
    39   20   21 ar
    40   20   42 1
    41   21   22 ar
    42   21   43 1
    43   22   23 ar
    44   22   25 1
    45   23   24 ar
    46   23   44 1
    47   24   45 1
    48   25   46 1
@<TRIPOS>MOLECULE
ZINC00928787
   46    48     0     0     0
SMALL
USER_CHARGES

@<TRIPOS>ATOM
      1 C1          6.2604    0.2074   -1.8993 C.3       1 <0>        -0.2413
      2 C2          6.0016    0.4418   -0.4097 C.3       1 <0>        -0.0300
      3 N1          5.3641    1.7478   -0.2244 N.pl3     1 <0>        -0.1504
      4 C3          5.9853    2.9454    0.0451 C.2       1 <0>        -0.0362
      5 N2          5.0436    3.8553    0.1384 N.2       1 <0>        -0.0779
      6 N3          3.8928    3.3175   -0.0565 N.2       1 <0>        -0.0901
      7 C4          4.0289    2.0310   -0.2863 C.2       1 <0>        -0.2131
      8 S1          2.7309    0.8835   -0.6070 S.3       1 <0>         0.3657
      9 C5          1.3025    1.9914   -0.5167 C.3       1 <0>        -0.3577
     10 C6          0.0652    2.2978    0.3028 C.2       1 <0>         0.2926
     11 O1         -0.6744    1.4143    0.6646 O.2       1 <0>        -0.2711
     12 C7         -0.2204    3.7418    0.6493 C.3       1 <0>        -0.1575
     13 C8         -0.2498    4.5709   -0.6323 C.3       1 <0>        -0.2100
     14 C9          0.0871    3.7703   -1.9660 C.3       1 <0>        -0.3447
     15 C10         1.3389    2.9759   -1.6681 C.2       1 <0>         0.1882
     16 O2          2.3390    3.1219   -2.3289 O.2       1 <0>        -0.2318
     17 C11        -0.4942    6.0406   -0.2844 C.3       1 <0>        -0.1904
     18 C12        -1.3780    4.0667   -1.5345 C.3       1 <0>         0.0116
     19 C13         7.4381    3.1650    0.2060 C.ar      1 <0>        -0.0145
     20 C14         7.9054    4.3087    0.8560 C.ar      1 <0>        -0.0733
     21 C15         9.2610    4.5074    1.0082 C.ar      1 <0>        -0.1547
     22 C16        10.1616    3.5770    0.5067 C.ar      1 <0>         0.0803
     23 C17         9.7010    2.4407   -0.1452 C.ar      1 <0>        -0.1546
     24 C18         8.3469    2.2320   -0.2968 C.ar      1 <0>        -0.1272
     25 O3         11.4972    3.7793    0.6537 O.3       1 <0>        -0.2919
     26 H1          5.3144    0.2299   -2.4404 H         1 <0>         0.0993
     27 H2          6.9164    0.9894   -2.2816 H         1 <0>         0.0937
     28 H3          6.7347   -0.7643   -2.0371 H         1 <0>         0.0901
     29 H4          6.9475    0.4193    0.1314 H         1 <0>         0.1176
     30 H5          5.3456   -0.3402   -0.0274 H         1 <0>         0.1090
     31 H6          0.5405    1.5953   -1.0290 H         1 <0>         0.1473
     32 H7         -1.1859    3.8126    1.1499 H         1 <0>         0.1262
     33 H8          0.5617    4.1204    1.3073 H         1 <0>         0.1266
     34 H9         -0.1315    4.4339   -1.1294 H         1 <0>         0.2452
     35 H10         0.2357    4.3592   -2.8712 H         1 <0>         0.1064
     36 H11        -0.5202    6.6313   -1.2002 H         1 <0>         0.0798
     37 H12        -1.4463    6.1371    0.2374 H         1 <0>         0.0946
     38 H13         0.3099    6.4007    0.3574 H         1 <0>         0.0858
     39 H14        -1.2038    3.0199   -1.7834 H         1 <0>         0.0638
     40 H15        -2.3304    4.1624   -1.0131 H         1 <0>         0.0173
     41 H16        -1.4035    4.6584   -2.4495 H         1 <0>         0.0585
     42 H17         7.2057    5.0350    1.2425 H         1 <0>         0.1587
     43 H18         9.6232    5.3897    1.5149 H         1 <0>         0.1464
     44 H19        10.4047    1.7193   -0.5335 H         1 <0>         0.1420
     45 H20         7.9894    1.3482   -0.8042 H         1 <0>         0.1410
     46 H21        11.9028    4.2715   -0.0731 H         1 <0>         0.2306
@<TRIPOS>BOND
     1    1    2 1
     2    1   26 1
     3    1   27 1
     4    1   28 1
     5    2    3 1
     6    2   29 1
     7    2   30 1
     8    3    7 1
     9    3    4 1
    10    4    5 2
    11    4   19 1
    12    5    6 1
    13    6    7 2
    14    7    8 1
    15    8    9 1
    16    9   31 1
    17    9   15 1
    18    9   10 1
    19   10   12 1
    20   10   11 2
    21   12   13 1
    22   12   32 1
    23   12   33 1
    24   13   14 1
    25   13   17 1
    26   13   18 1
    27   14   15 1
    28   14   34 1
    29   14   35 1
    30   15   16 2
    31   17   36 1
    32   17   37 1
    33   17   38 1
    34   18   39 1
    35   18   40 1
    36   18   41 1
    37   19   24 ar
    38   19   20 ar
    39   20   21 ar
    40   20   42 1
    41   21   22 ar
    42   21   43 1
    43   22   23 ar
    44   22   25 1
    45   23   24 ar
    46   23   44 1
    47   24   45 1
    48   25   46 1
@<TRIPOS>MOLECULE
ZINC00942179
   41    44     0     0     0
SMALL
USER_CHARGES

@<TRIPOS>ATOM
      1 C1          1.6724    4.6463    1.3643 C.3       1 <0>        -0.2121
      2 C2          0.2354    4.5862    1.8864 C.3       1 <0>        -0.0166
      3 O1          0.2476    4.5826    3.3153 O.3       1 <0>        -0.2134
      4 C3         -0.9527    4.4750    3.9419 C.ar      1 <0>         0.0920
      5 C4         -2.1168    4.3548    3.1921 C.ar      1 <0>        -0.2281
      6 C5         -3.3359    4.2404    3.8223 C.ar      1 <0>        -0.0185
      7 C6         -3.4024    4.2566    5.2205 C.ar      1 <0>        -0.0263
      8 C7         -2.2272    4.3832    5.9707 C.ar      1 <0>        -0.1356
      9 C8         -1.0129    4.4911    5.3303 C.ar      1 <0>        -0.1494
     10 N1         -4.6064    4.1500    5.8489 N.2       1 <0>        -0.1480
     11 C9         -4.6880    3.5497    7.0130 C.2       1 <0>         0.1157
     12 C10        -3.7704    2.4555    7.3971 C.2       1 <0>        -0.1701
     13 C11        -2.7280    1.8856    6.6781 C.2       1 <0>        -0.0550
     14 C12        -1.4585    1.3470    7.2098 C.ar      1 <0>        -0.1147
     15 C13        -0.9300    1.2405    8.4934 C.ar      1 <0>        -0.0597
     16 C14         0.3151    0.6743    8.6755 C.ar      1 <0>        -0.1590
     17 C15         1.0357    0.2149    7.5852 C.ar      1 <0>        -0.0797
     18 C16         0.5212    0.3161    6.3085 C.ar      1 <0>        -0.1597
     19 C17        -0.7318    0.8830    6.1040 C.ar      1 <0>         0.0792
     20 N2         -1.4706    1.1030    4.9481 N.am      1 <0>        -0.2958
     21 C18        -2.6513    1.6820    5.2252 C.2       1 <0>         0.3390
     22 O2         -3.5066    1.9876    4.4136 O.2       1 <0>        -0.3076
     23 S1         -4.3633    2.0663    9.0365 S.3       1 <0>         0.2031
     24 C19        -5.6875    3.2585    9.1248 C.2       1 <0>         0.2254
     25 O3         -6.4627    3.4531   10.0413 O.2       1 <0>        -0.2596
     26 N3         -5.6266    3.8928    7.9380 N.am      1 <0>        -0.3096
     27 H1          2.1526    5.5556    1.7259 H         1 <0>         0.0901
     28 H2          1.6631    4.6490    0.2744 H         1 <0>         0.0874
     29 H3          2.2251    3.7771    1.7208 H         1 <0>         0.0860
     30 H4         -0.3173    5.4554    1.5299 H         1 <0>         0.0780
     31 H5         -0.2447    3.6769    1.5248 H         1 <0>         0.0724
     32 H6         -2.0648    4.3469    2.1134 H         1 <0>         0.1397
     33 H7         -4.2395    4.1430    3.2388 H         1 <0>         0.1538
     34 H8         -2.2729    4.3959    7.0497 H         1 <0>         0.1413
     35 H9         -0.1056    4.5888    5.9080 H         1 <0>         0.1472
     36 H10        -1.4922    1.5992    9.3429 H         1 <0>         0.1432
     37 H11         0.7287    0.5899    9.6695 H         1 <0>         0.1389
     38 H12         2.0096   -0.2271    7.7358 H         1 <0>         0.1373
     39 H13         1.0928   -0.0462    5.4668 H         1 <0>         0.1360
     40 H14        -1.1739    0.8655    4.0557 H         1 <0>         0.2529
     41 H15        -6.2585    4.6016    7.7401 H         1 <0>         0.2598
@<TRIPOS>BOND
     1    1    2 1
     2    1   27 1
     3    1   28 1
     4    1   29 1
     5    2    3 1
     6    2   30 1
     7    2   31 1
     8    3    4 1
     9    4    9 ar
    10    4    5 ar
    11    5    6 ar
    12    5   32 1
    13    6    7 ar
    14    6   33 1
    15    7    8 ar
    16    7   10 1
    17    8    9 ar
    18    8   34 1
    19    9   35 1
    20   10   11 2
    21   11   26 1
    22   11   12 1
    23   12   13 2
    24   12   23 1
    25   13   21 1
    26   13   14 1
    27   14   19 ar
    28   14   15 ar
    29   15   16 ar
    30   15   36 1
    31   16   17 ar
    32   16   37 1
    33   17   18 ar
    34   17   38 1
    35   18   19 ar
    36   18   39 1
    37   19   20 1
    38   20   21 am
    39   20   40 1
    40   21   22 2
    41   23   24 1
    42   24   25 2
    43   24   26 am
    44   26   41 1
@<TRIPOS>MOLECULE
ZINC00948458
   39    42     0     0     0
SMALL
USER_CHARGES

@<TRIPOS>ATOM
      1 C1         -3.1186   10.9517   -3.1910 C.ar      1 <0>        -0.0981
      2 C2         -3.4013   11.0102   -4.5442 C.ar      1 <0>        -0.1044
      3 C3         -3.3121    9.8573   -5.3114 C.ar      1 <0>         0.0016
      4 C4         -2.9472    8.6818   -4.7226 C.ar      1 <0>        -0.6842
      5 C5         -2.6602    8.5897   -3.3535 C.ar      1 <0>        -0.1205
      6 C6         -2.7507    9.7669   -2.5945 C.ar      1 <0>        -0.0716
      7 C7         -2.2875    7.2238   -2.9557 C.2       1 <0>         0.2278
      8 N1         -2.2691    6.2869   -3.8497 N.2       1 <0>        -0.7074
      9 S1         -2.7106    7.0193   -5.2884 S.o2      1 <0>         2.6543
     10 O1         -1.5765    7.0106   -6.1446 O.2       1 <0>        -0.8850
     11 O2         -3.9804    6.5042   -5.6647 O.2       1 <0>        -0.8816
     12 N2         -1.9667    6.9424   -1.6434 N.pl3     1 <0>        -0.1925
     13 C8         -1.6221    5.6527   -1.2763 C.2       1 <0>        -0.1612
     14 C9         -1.2719    5.1778   -0.0195 C.2       1 <0>        -0.2288
     15 C10        -0.9518    3.7651    0.0989 C.2       1 <0>        -0.0684
     16 C11        -1.0321    3.0588   -1.0493 C.2       1 <0>        -0.3281
     17 S2         -1.5240    4.2392   -2.2736 S.3       1 <0>         0.5620
     18 C12        -0.7609    1.5973   -1.2316 C.3       1 <0>        -0.0743
     19 C13        -0.0127    1.0858    0.0080 C.3       1 <0>        -0.1567
     20 C14        -0.7351    1.5825    1.2637 C.3       1 <0>        -0.1579
     21 C15        -0.5511    3.0938    1.4068 C.3       1 <0>        -0.1025
     22 C16        -1.2272    6.0676    1.1441 C.2       1 <0>         0.3576
     23 O3         -2.2213    6.2246    1.8287 O.2       1 <0>        -0.3603
     24 N3         -0.0854    6.7120    1.4562 N.am      1 <0>        -0.4298
     25 H1         -3.1880   11.8489   -2.5938 H         1 <0>         0.1438
     26 H2         -3.6895   11.9460   -4.9999 H         1 <0>         0.1468
     27 H3         -3.5306    9.8902   -6.3686 H         1 <0>         0.1505
     28 H4         -2.5342    9.7422   -1.5367 H         1 <0>         0.1337
     29 H5         -1.9826    7.6481   -0.9781 H         1 <0>         0.2591
     30 H6         -0.1472    1.4457   -2.1195 H         1 <0>         0.0938
     31 H7         -1.7027    1.0592   -1.3400 H         1 <0>         0.0987
     32 H8          0.0021   -0.0041    0.0020 H         1 <0>         0.0851
     33 H9          1.0091    1.4651    0.0003 H         1 <0>         0.0862
     34 H10        -1.7982    1.3555    1.1835 H         1 <0>         0.0915
     35 H11        -0.3241    1.0813    2.1400 H         1 <0>         0.0829
     36 H12         0.4940    3.3133    1.6250 H         1 <0>         0.0876
     37 H13        -1.1793    3.4659    2.2161 H         1 <0>         0.1031
     38 H14         0.7068    6.5869    0.9106 H         1 <0>         0.2205
     39 H15        -0.0558    7.3010    2.2263 H         1 <0>         0.2266
@<TRIPOS>BOND
     1    1    6 ar
     2    1    2 ar
     3    1   25 1
     4    2    3 ar
     5    2   26 1
     6    3    4 ar
     7    3   27 1
     8    4    9 1
     9    4    5 ar
    10    5    6 ar
    11    5    7 1
    12    6   28 1
    13    7    8 2
    14    7   12 1
    15    8    9 1
    16    9   10 2
    17    9   11 2
    18   12   13 1
    19   12   29 1
    20   13   17 1
    21   13   14 2
    22   14   15 1
    23   14   22 1
    24   15   21 1
    25   15   16 2
    26   16   17 1
    27   16   18 1
    28   18   19 1
    29   18   30 1
    30   18   31 1
    31   19   20 1
    32   19   32 1
    33   19   33 1
    34   20   21 1
    35   20   34 1
    36   20   35 1
    37   21   36 1
    38   21   37 1
    39   22   23 2
    40   22   24 am
    41   24   38 1
    42   24   39 1
@<TRIPOS>MOLECULE
ZINC00949673
   40    42     0     0     0
SMALL
USER_CHARGES

@<TRIPOS>ATOM
      1 C1          2.4309    5.4942    6.5681 C.3       1 <0>        -0.1817
      2 C2          3.4924    6.3081    5.8739 C.ar      1 <0>        -0.0753
      3 C3          3.8784    7.5283    6.3937 C.ar      1 <0>        -0.1166
      4 C4          4.8524    8.2754    5.7576 C.ar      1 <0>        -0.0883
      5 C5          5.4430    7.8043    4.5991 C.ar      1 <0>        -0.0955
      6 C6          5.0660    6.5824    4.0778 C.ar      1 <0>        -0.0801
      7 C7          4.0837    5.8321    4.7113 C.ar      1 <0>         0.0617
      8 N1          3.6949    4.5965    4.1821 N.am      1 <0>        -0.3214
      9 C8          3.8589    4.3444    2.8683 C.2       1 <0>         0.3050
     10 O1          4.2494    5.2210    2.1267 O.2       1 <0>        -0.3288
     11 C9          3.5571    2.9732    2.3208 C.3       1 <0>        -0.1822
     12 C10         3.8245    2.9553    0.8144 C.3       1 <0>        -0.2230
     13 H1          4.8480    3.2756    0.6195 H         1 <0>         0.1831
     14 C11         3.6177    1.5624    0.2780 C.2       1 <0>         0.3062
     15 O2          4.5905    0.8576    0.1096 O.2       1 <0>        -0.3392
     16 N2          2.4198    1.0695   -0.0188 N.am      1 <0>        -0.3024
     17 C12         1.2097    1.7563    0.0037 C.ar      1 <0>         0.0619
     18 C13         0.0183    1.0392    0.0118 C.ar      1 <0>        -0.1613
     19 C14        -1.1940    1.6999    0.0190 C.ar      1 <0>        -0.0976
     20 C15        -1.2384    3.0822    0.0289 C.ar      1 <0>        -0.1438
     21 C16        -0.0621    3.8090    0.0174 C.ar      1 <0>        -0.0727
     22 C17         1.1565    3.1508    0.0012 C.ar      1 <0>        -0.2543
     23 S1          2.6620    4.0730   -0.0274 S.3       1 <0>         0.2313
     24 N3          6.4851    8.6075    3.9211 N.pl3     1 <0>         0.5498
     25 O3          6.8220    9.6829    4.3833 O.2       1 <0>        -0.3602
     26 O4          7.0056    8.1932    2.9008 O.3       1 <0>        -0.3453
     27 H2          2.8993    4.8308    7.2952 H         1 <0>         0.0920
     28 H3          1.7375    6.1619    7.0794 H         1 <0>         0.0967
     29 H4          1.8883    4.9012    5.8320 H         1 <0>         0.0821
     30 H5          3.4190    7.8990    7.2981 H         1 <0>         0.1486
     31 H6          5.1525    9.2292    6.1660 H         1 <0>         0.1653
     32 H7          5.5310    6.2128    3.1758 H         1 <0>         0.2031
     33 H8          3.3073    3.9214    4.7608 H         1 <0>         0.2390
     34 H9          2.5111    2.7297    2.5070 H         1 <0>         0.1145
     35 H10         4.1944    2.2376    2.8116 H         1 <0>         0.1222
     36 H11         2.3853    0.1354   -0.2777 H         1 <0>         0.2466
     37 H12         0.0414   -0.0406    0.0079 H         1 <0>         0.1359
     38 H13        -2.1137    1.1336    0.0206 H         1 <0>         0.1367
     39 H14        -2.1899    3.5930    0.0416 H         1 <0>         0.1387
     40 H15        -0.0934    4.8885    0.0214 H         1 <0>         0.1494
@<TRIPOS>BOND
     1    1    2 1
     2    1   27 1
     3    1   28 1
     4    1   29 1
     5    2    7 ar
     6    2    3 ar
     7    3    4 ar
     8    3   30 1
     9    4    5 ar
    10    4   31 1
    11    5    6 ar
    12    5   24 1
    13    6    7 ar
    14    6   32 1
    15    7    8 1
    16    8    9 am
    17    8   33 1
    18    9   10 2
    19    9   11 1
    20   11   12 1
    21   11   34 1
    22   11   35 1
    23   12   13 1
    24   12   23 1
    25   12   14 1
    26   14   15 2
    27   14   16 am
    28   16   17 1
    29   16   36 1
    30   17   22 ar
    31   17   18 ar
    32   18   19 ar
    33   18   37 1
    34   19   20 ar
    35   19   38 1
    36   20   21 ar
    37   20   39 1
    38   21   22 ar
    39   21   40 1
    40   22   23 1
    41   24   25 2
    42   24   26 1
@<TRIPOS>MOLECULE
ZINC00949674
   40    42     0     0     0
SMALL
USER_CHARGES

@<TRIPOS>ATOM
      1 C1          0.1880   -3.9751   -1.2629 C.3       1 <0>        -0.1823
      2 C2          0.0996   -2.6261   -0.5970 C.ar      1 <0>        -0.0680
      3 C3         -1.1025   -1.9461   -0.5696 C.ar      1 <0>        -0.1206
      4 C4         -1.1859   -0.7111    0.0464 C.ar      1 <0>        -0.0833
      5 C5         -0.0643   -0.1475    0.6271 C.ar      1 <0>        -0.1002
      6 C6          1.1403   -0.8222    0.6030 C.ar      1 <0>        -0.0696
      7 C7          1.2261   -2.0655   -0.0101 C.ar      1 <0>         0.0554
      8 N1          2.4454   -2.7515   -0.0365 N.am      1 <0>        -0.3254
      9 C8          3.6014   -2.0673   -0.1461 C.2       1 <0>         0.3057
     10 O1          3.5912   -0.8545   -0.1396 O.2       1 <0>        -0.3312
     11 C9          4.9066   -2.8092   -0.2766 C.3       1 <0>        -0.1815
     12 C10         6.0556   -1.8046   -0.3840 C.3       1 <0>        -0.2233
     13 H1          5.8609   -1.1104   -1.2014 H         1 <0>         0.1831
     14 C11         7.3478   -2.5370   -0.6374 C.2       1 <0>         0.3064
     15 O2          7.7560   -2.6097   -1.7773 O.2       1 <0>        -0.3408
     16 N2          8.0616   -3.1076    0.3274 N.am      1 <0>        -0.3020
     17 C12         7.8177   -3.0374    1.6956 C.ar      1 <0>         0.0625
     18 C13         8.4476   -3.9381    2.5477 C.ar      1 <0>        -0.1617
     19 C14         8.2158   -3.8905    3.9080 C.ar      1 <0>        -0.0971
     20 C15         7.3621   -2.9415    4.4405 C.ar      1 <0>        -0.1436
     21 C16         6.7427   -2.0278    3.6077 C.ar      1 <0>        -0.0717
     22 C17         6.9753   -2.0689    2.2429 C.ar      1 <0>        -0.2548
     23 S1          6.2131   -0.8849    1.1776 S.3       1 <0>         0.2300
     24 N3         -0.1566    1.1776    1.2802 N.pl3     1 <0>         0.5499
     25 O3          0.8296    1.6723    1.7961 O.2       1 <0>        -0.3455
     26 O4         -1.2176    1.7754    1.2974 O.3       1 <0>        -0.3603
     27 H2         -0.0281   -4.7553   -0.5331 H         1 <0>         0.0914
     28 H3         -0.5362   -4.0272   -2.0758 H         1 <0>         0.0967
     29 H4          1.1924   -4.1184   -1.6613 H         1 <0>         0.0846
     30 H5         -1.9792   -2.3815   -1.0259 H         1 <0>         0.1490
     31 H6         -2.1280   -0.1835    0.0707 H         1 <0>         0.1654
     32 H7          2.0148   -0.3837    1.0608 H         1 <0>         0.2003
     33 H8          2.4586   -3.7196    0.0240 H         1 <0>         0.2383
     34 H9          5.0556   -3.4392    0.6003 H         1 <0>         0.1153
     35 H10         4.8831   -3.4313   -1.1713 H         1 <0>         0.1205
     36 H11         8.8325   -3.6264    0.0492 H         1 <0>         0.2462
     37 H12         9.1213   -4.6790    2.1432 H         1 <0>         0.1357
     38 H13         8.7046   -4.5988    4.5605 H         1 <0>         0.1367
     39 H14         7.1800   -2.9140    5.5046 H         1 <0>         0.1393
     40 H15         6.0786   -1.2831    4.0209 H         1 <0>         0.1506
@<TRIPOS>BOND
     1    1    2 1
     2    1   27 1
     3    1   28 1
     4    1   29 1
     5    2    7 ar
     6    2    3 ar
     7    3    4 ar
     8    3   30 1
     9    4    5 ar
    10    4   31 1
    11    5    6 ar
    12    5   24 1
    13    6    7 ar
    14    6   32 1
    15    7    8 1
    16    8    9 am
    17    8   33 1
    18    9   10 2
    19    9   11 1
    20   11   12 1
    21   11   34 1
    22   11   35 1
    23   12   13 1
    24   12   23 1
    25   12   14 1
    26   14   15 2
    27   14   16 am
    28   16   17 1
    29   16   36 1
    30   17   22 ar
    31   17   18 ar
    32   18   19 ar
    33   18   37 1
    34   19   20 ar
    35   19   38 1
    36   20   21 ar
    37   20   39 1
    38   21   22 ar
    39   21   40 1
    40   22   23 1
    41   24   25 2
    42   24   26 1
@<TRIPOS>MOLECULE
ZINC00950289
   42    45     0     0     0
SMALL
USER_CHARGES

@<TRIPOS>ATOM
      1 C1          2.0390   -1.0798    3.9952 C.3       1 <0>        -0.1705
      2 C2          0.5548   -1.3170    3.8871 C.ar      1 <0>        -0.0767
      3 C3         -0.1565   -1.7502    4.9907 C.ar      1 <0>        -0.1074
      4 C4         -1.5185   -1.9701    4.8975 C.ar      1 <0>        -0.1911
      5 C5         -2.1743   -1.7563    3.6964 C.ar      1 <0>         0.0696
      6 C6         -1.4585   -1.3193    2.5840 C.ar      1 <0>         0.0612
      7 C7         -0.0914   -1.1059    2.6836 C.ar      1 <0>        -0.1495
      8 N1         -2.1159   -1.1016    1.3677 N.pl3     1 <0>        -0.8013
      9 S1         -1.3524   -1.4493   -0.0600 S.o2      1 <0>         2.7662
     10 O1         -2.2813   -1.1650   -1.0971 O.2       1 <0>        -0.9080
     11 O2         -0.7566   -2.7295    0.0992 O.2       1 <0>        -0.9016
     12 C8         -0.0308   -0.2976   -0.2380 C.ar      1 <0>        -0.7766
     13 C9          1.2696   -0.7231   -0.2625 C.ar      1 <0>         0.0215
     14 C10         2.3546    0.1417   -0.4006 C.ar      1 <0>        -0.1819
     15 C11         2.1426    1.5027   -0.5212 C.ar      1 <0>         0.1251
     16 C12         0.8157    1.9201   -0.4953 C.ar      1 <0>        -0.1178
     17 C13        -0.2884    1.0780   -0.3584 C.ar      1 <0>         0.0653
     18 C14        -1.5587    1.6792   -0.3588 C.ar      1 <0>        -0.0970
     19 C15        -1.6477    3.0400   -0.4827 C.ar      1 <0>        -0.1173
     20 C16        -0.5336    3.8676   -0.6189 C.ar      1 <0>        -0.0316
     21 C17         0.7348    3.3145   -0.6272 C.ar      1 <0>        -0.1342
     22 C18         2.1326    3.7480   -0.7386 C.2       1 <0>         0.3664
     23 O3          2.5176    4.8949   -0.8690 O.2       1 <0>        -0.3061
     24 N2          2.9215    2.6432   -0.6704 N.am      1 <0>        -0.3074
     25 O4         -3.5138   -1.9730    3.6031 O.3       1 <0>        -0.2146
     26 C19        -4.1825   -2.4204    4.7841 C.3       1 <0>        -0.0613
     27 H1          2.5742   -1.9729    3.6726 H         1 <0>         0.0879
     28 H2          2.3197   -0.2390    3.3608 H         1 <0>         0.0810
     29 H3          2.2968   -0.8558    5.0303 H         1 <0>         0.0818
     30 H4          0.3532   -1.9178    5.9281 H         1 <0>         0.1338
     31 H5         -2.0711   -2.3088    5.7614 H         1 <0>         0.1388
     32 H6          0.4673   -0.7715    1.8219 H         1 <0>         0.1468
     33 H7         -3.0188   -0.7471    1.3610 H         1 <0>         0.2577
     34 H8          1.4652   -1.7812   -0.1707 H         1 <0>         0.1616
     35 H9          3.3605   -0.2514   -0.4131 H         1 <0>         0.1424
     36 H10        -2.4503    1.0778   -0.2603 H         1 <0>         0.1503
     37 H11        -2.6278    3.4937   -0.4782 H         1 <0>         0.1409
     38 H12        -0.6601    4.9357   -0.7170 H         1 <0>         0.1491
     39 H13         3.8903    2.6502   -0.7184 H         1 <0>         0.2567
     40 H14        -3.7541   -3.3694    5.1068 H         1 <0>         0.0714
     41 H15        -4.0600   -1.6792    5.5739 H         1 <0>         0.0669
     42 H16        -5.2433   -2.5540    4.5725 H         1 <0>         0.1096
@<TRIPOS>BOND
     1    1    2 1
     2    1   27 1
     3    1   28 1
     4    1   29 1
     5    2    7 ar
     6    2    3 ar
     7    3    4 ar
     8    3   30 1
     9    4    5 ar
    10    4   31 1
    11    5    6 ar
    12    5   25 1
    13    6    7 ar
    14    6    8 1
    15    7   32 1
    16    8    9 1
    17    8   33 1
    18    9   10 2
    19    9   11 2
    20    9   12 1
    21   12   17 ar
    22   12   13 ar
    23   13   14 ar
    24   13   34 1
    25   14   15 ar
    26   14   35 1
    27   15   24 1
    28   15   16 ar
    29   16   21 ar
    30   16   17 ar
    31   17   18 ar
    32   18   19 ar
    33   18   36 1
    34   19   20 ar
    35   19   37 1
    36   20   21 ar
    37   20   38 1
    38   21   22 1
    39   22   23 2
    40   22   24 am
    41   24   39 1
    42   25   26 1
    43   26   40 1
    44   26   41 1
    45   26   42 1
@<TRIPOS>MOLECULE
ZINC00953372
   43    45     0     0     0
SMALL
USER_CHARGES

@<TRIPOS>ATOM
      1 C1          2.6250   -0.9114    0.7263 C.3       1 <0>        -0.0334
      2 O1          1.2558   -1.3916    0.6713 O.3       1 <0>        -0.2766
      3 C2          0.2909   -0.4687    0.4975 C.2       1 <0>         0.4030
      4 O2          0.5849    0.7058    0.3946 O.2       1 <0>        -0.4024
      5 N1         -1.0011   -0.8476    0.4377 N.am      1 <0>        -0.3100
      6 C3         -2.0115    0.1186    0.3728 C.ar      1 <0>         0.1317
      7 C4         -1.8188    1.3667    0.9504 C.ar      1 <0>        -0.1591
      8 C5         -2.8160    2.3197    0.8805 C.ar      1 <0>        -0.0142
      9 C6         -4.0093    2.0286    0.2454 C.ar      1 <0>        -0.7483
     10 C7         -4.2063    0.7850   -0.3262 C.ar      1 <0>         0.0308
     11 C8         -3.2110   -0.1706   -0.2643 C.ar      1 <0>        -0.1939
     12 S1         -5.2818    3.2447    0.1647 S.o2      1 <0>         2.7977
     13 O3         -4.7292    4.3666   -0.5101 O.2       1 <0>        -0.9208
     14 O4         -6.4507    2.5796   -0.2940 O.2       1 <0>        -0.9329
     15 N2         -5.5926    3.7318    1.7166 N.pl3     1 <0>        -0.7620
     16 C9         -5.5578    5.1567    2.0734 C.3       1 <0>        -0.0122
     17 C10        -4.7916    5.2897    3.3961 C.3       1 <0>        -0.1739
     18 C11        -5.5624    4.5505    4.4896 C.3       1 <0>        -0.1149
     19 C12        -5.8859    3.1468    4.0501 C.ar      1 <0>        -0.0932
     20 C13        -5.8991    2.7918    2.7108 C.ar      1 <0>         0.0714
     21 C14        -6.2021    1.4834    2.3396 C.ar      1 <0>         0.0158
     22 C15        -6.4978    0.5402    3.3090 C.ar      1 <0>        -0.1255
     23 C16        -6.4863    0.8990    4.6444 C.ar      1 <0>        -0.1404
     24 C17        -6.1827    2.1949    5.0130 C.ar      1 <0>        -0.1129
     25 O5         -6.2127    1.1347    1.0250 O.3       1 <0>        -0.3210
     26 H1          2.8698   -0.4039   -0.2068 H         1 <0>         0.0870
     27 H2          2.7327   -0.2149    1.5578 H         1 <0>         0.0847
     28 H3          3.3004   -1.7549    0.8691 H         1 <0>         0.1062
     29 H4         -1.2305   -1.7901    0.4356 H         1 <0>         0.2442
     30 H5         -0.8887    1.5931    1.4506 H         1 <0>         0.1695
     31 H6         -2.6652    3.2919    1.3260 H         1 <0>         0.1368
     32 H7         -5.1392    0.5607   -0.8219 H         1 <0>         0.1570
     33 H8         -3.3652   -1.1416   -0.7112 H         1 <0>         0.1349
     34 H9         -5.0472    5.7205    1.2926 H         1 <0>         0.1250
     35 H10        -6.5740    5.5318    2.1950 H         1 <0>         0.0922
     36 H11        -3.7993    4.8517    3.2889 H         1 <0>         0.0944
     37 H12        -4.6992    6.3432    3.6603 H         1 <0>         0.0933
     38 H13        -4.9561    4.5133    5.3946 H         1 <0>         0.0939
     39 H14        -6.4892    5.0842    4.6999 H         1 <0>         0.0936
     40 H15        -6.7366   -0.4735    3.0228 H         1 <0>         0.1417
     41 H16        -6.7157    0.1636    5.4014 H         1 <0>         0.1329
     42 H17        -6.1762    2.4682    6.0578 H         1 <0>         0.1328
     43 H18        -7.0878    1.1721    0.6152 H         1 <0>         0.2771
@<TRIPOS>BOND
     1    1    2 1
     2    1   26 1
     3    1   27 1
     4    1   28 1
     5    2    3 1
     6    3    4 2
     7    3    5 am
     8    5    6 1
     9    5   29 1
    10    6   11 ar
    11    6    7 ar
    12    7    8 ar
    13    7   30 1
    14    8    9 ar
    15    8   31 1
    16    9   10 ar
    17    9   12 1
    18   10   11 ar
    19   10   32 1
    20   11   33 1
    21   12   13 2
    22   12   14 2
    23   12   15 1
    24   15   20 1
    25   15   16 1
    26   16   17 1
    27   16   34 1
    28   16   35 1
    29   17   18 1
    30   17   36 1
    31   17   37 1
    32   18   19 1
    33   18   38 1
    34   18   39 1
    35   19   24 ar
    36   19   20 ar
    37   20   21 ar
    38   21   22 ar
    39   21   25 1
    40   22   23 ar
    41   22   40 1
    42   23   24 ar
    43   23   41 1
    44   24   42 1
    45   25   43 1
@<TRIPOS>MOLECULE
ZINC00954834
   45    48     0     0     0
SMALL
USER_CHARGES

@<TRIPOS>ATOM
      1 C1         -4.3028    2.2554    7.8653 C.3       1 <0>        -0.0658
      2 O1         -5.0727    2.9098    6.8549 O.3       1 <0>        -0.1912
      3 C2         -4.5784    2.8851    5.5903 C.ar      1 <0>         0.0949
      4 C3         -3.3754    2.2432    5.3293 C.ar      1 <0>        -0.2021
      5 C4         -2.8721    2.2112    4.0470 C.ar      1 <0>        -0.1024
      6 C5         -3.5672    2.8346    3.0079 C.ar      1 <0>        -0.1319
      7 C6         -4.7781    3.4806    3.2703 C.ar      1 <0>        -0.1298
      8 C7         -5.2799    3.5046    4.5571 C.ar      1 <0>         0.0603
      9 O2         -6.4579    4.1329    4.8161 O.3       1 <0>        -0.1966
     10 C8         -7.1226    4.7468    3.7100 C.3       1 <0>        -0.0670
     11 C9         -3.0268    2.8056    1.6346 C.2       1 <0>         0.3498
     12 O3         -3.6354    3.3442    0.7303 O.2       1 <0>        -0.3749
     13 N1         -1.8588    2.1820    1.3831 N.am      1 <0>        -0.3895
     14 C10        -1.3224    2.1532    0.0201 C.3       1 <0>         0.0409
     15 C11        -0.0170    1.4004    0.0097 C.ar      1 <0>        -0.1176
     16 C12         1.1767    2.0698    0.0019 C.ar      1 <0>        -0.0792
     17 C13         2.4138    1.4267   -0.0121 C.ar      1 <0>        -0.1478
     18 C14         2.4746    0.0454   -0.0199 C.ar      1 <0>         0.0744
     19 C15         1.2535   -0.6211   -0.0124 C.ar      1 <0>        -0.1009
     20 C16         0.0021   -0.0041    0.0020 C.ar      1 <0>        -0.0057
     21 C17        -1.1268   -0.8412    0.0071 C.ar      1 <0>        -0.0831
     22 C18        -0.9453   -2.1984   -0.0024 C.ar      1 <0>        -0.1393
     23 C19         0.3131   -2.7992   -0.0171 C.ar      1 <0>        -0.0266
     24 C20         1.4498   -2.0102   -0.0222 C.ar      1 <0>        -0.1413
     25 C21         2.9089   -2.1681   -0.0356 C.2       1 <0>         0.3661
     26 O4          3.5141   -3.2238   -0.0457 O.2       1 <0>        -0.3175
     27 N2          3.4655   -0.9280   -0.0338 N.am      1 <0>        -0.3069
     28 H1         -4.8090    2.3498    8.8260 H         1 <0>         0.1125
     29 H2         -4.1950    1.2004    7.6136 H         1 <0>         0.0675
     30 H3         -3.3172    2.7168    7.9270 H         1 <0>         0.0675
     31 H4         -2.8349    1.7644    6.1324 H         1 <0>         0.1429
     32 H5         -1.9380    1.7076    3.8460 H         1 <0>         0.1275
     33 H6         -5.3207    3.9599    2.4688 H         1 <0>         0.1667
     34 H7         -8.0471    5.2108    4.0537 H         1 <0>         0.1106
     35 H8         -6.4750    5.5071    3.2734 H         1 <0>         0.0710
     36 H9         -7.3528    3.9908    2.9593 H         1 <0>         0.0707
     37 H10        -1.3732    1.7523    2.1045 H         1 <0>         0.2284
     38 H11        -1.1564    3.1732   -0.3267 H         1 <0>         0.1012
     39 H12        -2.0336    1.6564   -0.6398 H         1 <0>         0.1014
     40 H13         1.1596    3.1496    0.0076 H         1 <0>         0.1387
     41 H14         3.3244    2.0075   -0.0180 H         1 <0>         0.1374
     42 H15        -2.1216   -0.4208    0.0180 H         1 <0>         0.1479
     43 H16        -1.8185   -2.8339    0.0012 H         1 <0>         0.1375
     44 H17         0.4000   -3.8757   -0.0240 H         1 <0>         0.1473
     45 H18         4.4187   -0.7484   -0.0409 H         1 <0>         0.2540
@<TRIPOS>BOND
     1    1    2 1
     2    1   28 1
     3    1   29 1
     4    1   30 1
     5    2    3 1
     6    3    8 ar
     7    3    4 ar
     8    4    5 ar
     9    4   31 1
    10    5    6 ar
    11    5   32 1
    12    6    7 ar
    13    6   11 1
    14    7    8 ar
    15    7   33 1
    16    8    9 1
    17    9   10 1
    18   10   34 1
    19   10   35 1
    20   10   36 1
    21   11   12 2
    22   11   13 am
    23   13   14 1
    24   13   37 1
    25   14   15 1
    26   14   38 1
    27   14   39 1
    28   15   20 ar
    29   15   16 ar
    30   16   17 ar
    31   16   40 1
    32   17   18 ar
    33   17   41 1
    34   18   27 1
    35   18   19 ar
    36   19   24 ar
    37   19   20 ar
    38   20   21 ar
    39   21   22 ar
    40   21   42 1
    41   22   23 ar
    42   22   43 1
    43   23   24 ar
    44   23   44 1
    45   24   25 1
    46   25   26 2
    47   25   27 am
    48   27   45 1
@<TRIPOS>MOLECULE
ZINC00956535
   39    41     0     0     0
SMALL
USER_CHARGES

@<TRIPOS>ATOM
      1 C1         -3.9700    8.0973   -2.0615 C.3       1 <0>        -0.2134
      2 C2         -2.6533    7.3676   -1.7882 C.3       1 <0>        -0.0055
      3 O1         -2.9283    5.9809   -1.4565 O.3       1 <0>        -0.2510
      4 C3         -1.8686    5.1953   -1.1865 C.2       1 <0>         0.3595
      5 O2         -0.7460    5.6554   -1.2269 O.2       1 <0>        -0.2972
      6 C4         -2.0732    3.7666   -0.8394 C.ar      1 <0>         0.1051
      7 N1         -3.3042    3.2959   -0.8032 N.ar      1 <0>        -0.2462
      8 C5         -3.5314    2.0142   -0.4948 C.ar      1 <0>         0.0818
      9 C6         -4.8286    1.4812   -0.4467 C.ar      1 <0>        -0.1252
     10 C7         -5.0047    0.1682   -0.1266 C.ar      1 <0>        -0.1063
     11 C8         -3.9168   -0.6544    0.1536 C.ar      1 <0>        -0.1657
     12 C9         -2.6422   -0.1690    0.1156 C.ar      1 <0>        -0.0759
     13 C10        -2.4250    1.1725   -0.2141 C.ar      1 <0>        -0.1916
     14 C11        -1.1247    1.7343   -0.2620 C.ar      1 <0>         0.2103
     15 N2         -1.0064    3.0155   -0.5776 N.ar      1 <0>        -0.2540
     16 N3         -0.0111    0.9658    0.0074 N.pl3     1 <0>        -0.1899
     17 C12         1.2697    1.4995   -0.1797 C.ar      1 <0>        -0.1276
     18 C13         1.4629    2.5509   -1.0642 C.ar      1 <0>        -0.0174
     19 C14         2.7272    3.0794   -1.2430 C.ar      1 <0>        -0.2402
     20 C15         3.8035    2.5559   -0.5506 C.ar      1 <0>        -0.0387
     21 C16         3.6196    1.5047    0.3286 C.ar      1 <0>        -0.2645
     22 C17         2.3547    0.9726    0.5177 C.ar      1 <0>         0.2370
     23 N4          2.9309    4.2044   -2.1832 N.pl3     1 <0>         0.5712
     24 O3          4.0455    4.6678   -2.3461 O.2       1 <0>        -0.4330
     25 O4          1.9840    4.6668   -2.7939 O.3       1 <0>        -0.3982
     26 H1         -4.4840    7.6193   -2.8953 H         1 <0>         0.0840
     27 H2         -4.6004    8.0543   -1.1733 H         1 <0>         0.0824
     28 H3         -3.7636    9.1382   -2.3105 H         1 <0>         0.0777
     29 H4         -2.1392    7.8456   -0.9543 H         1 <0>         0.0852
     30 H5         -2.0229    7.4106   -2.6764 H         1 <0>         0.0909
     31 H6         -5.6819    2.1074   -0.6617 H         1 <0>         0.1424
     32 H7         -6.0036   -0.2406   -0.0900 H         1 <0>         0.1198
     33 H8         -4.0842   -1.6915    0.4042 H         1 <0>         0.1224
     34 H9         -1.8067   -0.8173    0.3346 H         1 <0>         0.1352
     35 H10        -0.1155    0.0544    0.3225 H         1 <0>         0.2604
     36 H11         0.6248    2.9588   -1.6097 H         1 <0>         0.1761
     37 H12         4.7906    2.9689   -0.6971 H         1 <0>         0.1271
     38 H13         4.4625    1.0982    0.8679 H         1 <0>         0.1314
     39 O5          2.1725   -0.0618    1.3814 O.3       1 <0>        -0.5585
@<TRIPOS>BOND
     1    1    2 1
     2    1   26 1
     3    1   27 1
     4    1   28 1
     5    2    3 1
     6    2   29 1
     7    2   30 1
     8    3    4 1
     9    4    5 2
    10    4    6 1
    11    6   15 ar
    12    6    7 ar
    13    7    8 ar
    14    8   13 ar
    15    8    9 ar
    16    9   10 ar
    17    9   31 1
    18   10   11 ar
    19   10   32 1
    20   11   12 ar
    21   11   33 1
    22   12   13 ar
    23   12   34 1
    24   13   14 ar
    25   14   15 ar
    26   14   16 1
    27   16   17 1
    28   16   35 1
    29   17   22 ar
    30   17   18 ar
    31   18   19 ar
    32   18   36 1
    33   19   20 ar
    34   19   23 1
    35   20   21 ar
    36   20   37 1
    37   21   22 ar
    38   21   38 1
    39   22   39 1
    40   23   24 2
    41   23   25 1
@<TRIPOS>MOLECULE
ZINC00958246
   41    43     0     0     0
SMALL
USER_CHARGES

@<TRIPOS>ATOM
      1 C1         -1.6034   -2.0190    2.5630 C.3       1 <0>        -0.1696
      2 C2         -1.0322   -2.6907    1.3409 C.2       1 <0>        -0.0516
      3 C3         -0.9886   -4.0302    1.2598 C.2       1 <0>        -0.2836
      4 S1         -0.2454   -4.3234   -0.3340 S.3       1 <0>         0.4073
      5 C4         -0.0154   -2.6396   -0.8440 C.2       1 <0>        -0.1257
      6 C5         -0.5223   -1.8975    0.2381 C.2       1 <0>        -0.2302
      7 C6         -0.4621   -0.4730    0.0942 C.2       1 <0>         0.3631
      8 O1         -0.8772    0.2566    0.9781 O.2       1 <0>        -0.3685
      9 N1          0.0596    0.0467   -1.0325 N.am      1 <0>        -0.2382
     10 C7          0.5216   -0.7505   -2.0299 C.2       1 <0>         0.0962
     11 N2          0.4852   -2.0520   -1.9268 N.2       1 <0>        -0.1807
     12 C8          0.1247    1.5019   -1.1885 C.3       1 <0>        -0.0537
     13 C9          1.4352    2.0074   -0.6425 C.2       1 <0>         0.2915
     14 O2          2.2361    1.2287   -0.1695 O.2       1 <0>        -0.2967
     15 N3          1.7174    3.3248   -0.6796 N.am      1 <0>        -0.3415
     16 N4          2.9357    3.7948   -0.1720 N.2       1 <0>         0.0188
     17 C10         3.1590    5.0712   -0.0988 C.2       1 <0>        -0.1074
     18 C11         2.0287    6.0176   -0.0832 C.ar      1 <0>        -0.1088
     19 C12         2.2545    7.3822   -0.2822 C.ar      1 <0>        -0.0898
     20 C13         1.1944    8.2625   -0.2715 C.ar      1 <0>        -0.1510
     21 C14        -0.0957    7.7966   -0.0528 C.ar      1 <0>         0.0854
     22 C15        -0.3243    6.4418    0.1508 C.ar      1 <0>        -0.1503
     23 C16         0.7291    5.5535    0.1365 C.ar      1 <0>        -0.1369
     24 O3         -1.1371    8.6688   -0.0374 O.3       1 <0>        -0.2913
     25 C17        -1.4564   -5.0430    2.2729 C.3       1 <0>        -0.1235
     26 H1         -2.6729   -1.8608    2.4242 H         1 <0>         0.0875
     27 H2         -1.4399   -2.6519    3.4353 H         1 <0>         0.0746
     28 H3         -1.1105   -1.0585    2.7135 H         1 <0>         0.1167
     29 H4          0.9303   -0.3003   -2.9225 H         1 <0>         0.1939
     30 H5          0.0485    1.7578   -2.2453 H         1 <0>         0.1115
     31 H6         -0.6984    1.9630   -0.6427 H         1 <0>         0.1456
     32 H7          1.0770    3.9475   -1.0578 H         1 <0>         0.2279
     33 H8          4.1729    5.4401   -0.0494 H         1 <0>         0.1864
     34 H9          3.2578    7.7459   -0.4479 H         1 <0>         0.1394
     35 H10         1.3674    9.3168   -0.4293 H         1 <0>         0.1460
     36 H11        -1.3290    6.0840    0.3208 H         1 <0>         0.1462
     37 H12         0.5505    4.5002    0.2952 H         1 <0>         0.1548
     38 H13        -1.3316    9.0339    0.8366 H         1 <0>         0.2342
     39 H14        -1.2750   -6.0482    1.8923 H         1 <0>         0.0854
     40 H15        -0.9096   -4.9035    3.2055 H         1 <0>         0.0942
     41 H16        -2.5231   -4.9101    2.4537 H         1 <0>         0.0922
@<TRIPOS>BOND
     1    1    2 1
     2    1   26 1
     3    1   27 1
     4    1   28 1
     5    2    6 1
     6    2    3 2
     7    3    4 1
     8    3   25 1
     9    4    5 1
    10    5   11 1
    11    5    6 2
    12    6    7 1
    13    7    8 2
    14    7    9 am
    15    9   10 1
    16    9   12 1
    17   10   11 2
    18   10   29 1
    19   12   13 1
    20   12   30 1
    21   12   31 1
    22   13   14 2
    23   13   15 am
    24   15   16 1
    25   15   32 1
    26   16   17 2
    27   17   18 1
    28   17   33 1
    29   18   23 ar
    30   18   19 ar
    31   19   20 ar
    32   19   34 1
    33   20   21 ar
    34   20   35 1
    35   21   22 ar
    36   21   24 1
    37   22   23 ar
    38   22   36 1
    39   23   37 1
    40   24   38 1
    41   25   39 1
    42   25   40 1
    43   25   41 1
@<TRIPOS>MOLECULE
ZINC00958247
   41    43     0     0     0
SMALL
USER_CHARGES

@<TRIPOS>ATOM
      1 C1          2.8687    0.0005   -0.0243 C.3       1 <0>        -0.1697
      2 C2          2.5792    1.4794   -0.0146 C.2       1 <0>        -0.0516
      3 C3          3.5852    2.3686   -0.0199 C.2       1 <0>        -0.2836
      4 S1          2.7461    3.9415   -0.0039 S.3       1 <0>         0.4072
      5 C4          1.0702    3.3589    0.0094 C.2       1 <0>        -0.1263
      6 C5          1.2100    1.9593    0.0010 C.2       1 <0>        -0.2300
      7 C6         -0.0145    1.2147    0.0087 C.2       1 <0>         0.3627
      8 O1          0.0021   -0.0041    0.0020 O.2       1 <0>        -0.3660
      9 N1         -1.1831    1.8825    0.0178 N.am      1 <0>        -0.2386
     10 C7         -1.2208    3.2398    0.0302 C.2       1 <0>         0.0957
     11 N2         -0.1225    3.9466    0.0235 N.2       1 <0>        -0.1807
     12 C8         -2.4398    1.1296    0.0196 C.3       1 <0>        -0.0530
     13 C9         -2.8641    0.8638    1.4410 C.2       1 <0>         0.2994
     14 O2         -2.1835    1.2639    2.3621 O.2       1 <0>        -0.2991
     15 N3         -3.9996    0.1815    1.6889 N.am      1 <0>        -0.3302
     16 N4         -4.3941   -0.0657    3.0103 N.2       1 <0>         0.0069
     17 C10        -5.4875   -0.7227    3.2490 C.2       1 <0>        -0.1038
     18 C11        -5.9026   -0.9828    4.6395 C.ar      1 <0>        -0.0621
     19 C12        -5.1172   -0.5279    5.7020 C.ar      1 <0>        -0.0724
     20 C13        -5.5116   -0.7691    7.0002 C.ar      1 <0>        -0.1603
     21 C14        -6.6823   -1.4725    7.2533 C.ar      1 <0>         0.0867
     22 C15        -7.4633   -1.9312    6.2003 C.ar      1 <0>        -0.1610
     23 C16        -7.0796   -1.6900    4.8989 C.ar      1 <0>        -0.0945
     24 O3         -7.0643   -1.7130    8.5345 O.3       1 <0>        -0.2920
     25 C17         5.0682    2.1011   -0.0361 C.3       1 <0>        -0.1235
     26 H1          2.9284   -0.3513   -1.0543 H         1 <0>         0.0877
     27 H2          3.8169   -0.1874    0.4793 H         1 <0>         0.0746
     28 H3          2.0702   -0.5294    0.4949 H         1 <0>         0.1170
     29 H4         -2.1759    3.7438    0.0417 H         1 <0>         0.1933
     30 H5         -3.2112    1.7092   -0.4875 H         1 <0>         0.1097
     31 H6         -2.2965    0.1823   -0.5000 H         1 <0>         0.1481
     32 H7         -4.5438   -0.1385    0.9524 H         1 <0>         0.2060
     33 H8         -6.0934   -1.0789    2.4290 H         1 <0>         0.1158
     34 H9         -4.2045    0.0152    5.5061 H         1 <0>         0.1635
     35 H10        -4.9074   -0.4144    7.8220 H         1 <0>         0.1465
     36 H11        -8.3726   -2.4780    6.4017 H         1 <0>         0.1427
     37 H12        -7.6873   -2.0474    4.0808 H         1 <0>         0.1321
     38 H13        -6.7207   -2.5403    8.8987 H         1 <0>         0.2309
     39 H14         5.6082    3.0480   -0.0365 H         1 <0>         0.0854
     40 H15         5.3434    1.5263    0.8482 H         1 <0>         0.0942
     41 H16         5.3257    1.5356   -0.9316 H         1 <0>         0.0923
@<TRIPOS>BOND
     1    1    2 1
     2    1   26 1
     3    1   27 1
     4    1   28 1
     5    2    6 1
     6    2    3 2
     7    3    4 1
     8    3   25 1
     9    4    5 1
    10    5   11 1
    11    5    6 2
    12    6    7 1
    13    7    8 2
    14    7    9 am
    15    9   10 1
    16    9   12 1
    17   10   11 2
    18   10   29 1
    19   12   13 1
    20   12   30 1
    21   12   31 1
    22   13   14 2
    23   13   15 am
    24   15   16 1
    25   15   32 1
    26   16   17 2
    27   17   18 1
    28   17   33 1
    29   18   23 ar
    30   18   19 ar
    31   19   20 ar
    32   19   34 1
    33   20   21 ar
    34   20   35 1
    35   21   22 ar
    36   21   24 1
    37   22   23 ar
    38   22   36 1
    39   23   37 1
    40   24   38 1
    41   25   39 1
    42   25   40 1
    43   25   41 1
@<TRIPOS>MOLECULE
ZINC00958362
   41    43     0     0     0
SMALL
USER_CHARGES

@<TRIPOS>ATOM
      1 C1         -8.3544    9.9496    0.4413 C.3       1 <0>        -0.2102
      2 C2         -8.5380    8.4339    0.5395 C.3       1 <0>        -0.0785
      3 C3         -7.4531    7.7444   -0.2469 C.2       1 <0>        -0.2745
      4 C4         -6.2433    7.3453    0.1772 C.2       1 <0>        -0.1061
      5 C5         -5.3449    6.6932   -0.7571 C.2       1 <0>        -0.2331
      6 C6         -5.8511    6.5394   -2.0604 C.2       1 <0>        -0.1270
      7 S1         -7.4686    7.2622   -1.9632 S.3       1 <0>         0.4076
      8 N1         -5.1437    5.9603   -3.0260 N.2       1 <0>        -0.1813
      9 C7         -3.9381    5.5115   -2.8001 C.2       1 <0>         0.0969
     10 N2         -3.3699    5.6116   -1.5709 N.am      1 <0>        -0.2389
     11 C8         -4.0221    6.1853   -0.5427 C.2       1 <0>         0.3612
     12 O1         -3.4961    6.2710    0.5535 O.2       1 <0>        -0.3636
     13 C9         -2.0170    5.0901   -1.3612 C.3       1 <0>        -0.0538
     14 C10        -2.0958    3.6485   -0.9290 C.2       1 <0>         0.2906
     15 O2         -3.1760    3.1097   -0.8081 O.2       1 <0>        -0.2948
     16 N3         -0.9663    2.9579   -0.6768 N.am      1 <0>        -0.3341
     17 N4         -1.0395    1.6177   -0.2751 N.2       1 <0>         0.0155
     18 C11         0.0344    0.9934    0.1008 C.2       1 <0>        -0.1068
     19 C12         1.1349    1.7383    0.7391 C.ar      1 <0>        -0.1093
     20 C13         0.9605    3.0784    1.0944 C.ar      1 <0>        -0.1298
     21 C14         1.9904    3.7694    1.6951 C.ar      1 <0>        -0.1502
     22 C15         3.2038    3.1386    1.9384 C.ar      1 <0>         0.0854
     23 C16         3.3834    1.8081    1.5821 C.ar      1 <0>        -0.1522
     24 C17         2.3575    1.1079    0.9853 C.ar      1 <0>        -0.0902
     25 O3          4.2180    3.8251    2.5261 O.3       1 <0>        -0.2885
     26 H1         -7.3809   10.2248    0.8470 H         1 <0>         0.0816
     27 H2         -8.4124   10.2557   -0.6033 H         1 <0>         0.0798
     28 H3         -9.1392   10.4483    1.0101 H         1 <0>         0.0774
     29 H4         -9.5116    8.1587    0.1338 H         1 <0>         0.0939
     30 H5         -8.4800    8.1278    1.5841 H         1 <0>         0.1011
     31 H6         -5.9425    7.5076    1.2017 H         1 <0>         0.1601
     32 H7         -3.3848    5.0493   -3.6042 H         1 <0>         0.1937
     33 H8         -1.5182    5.6744   -0.5880 H         1 <0>         0.1456
     34 H9         -1.4523    5.1604   -2.2908 H         1 <0>         0.1103
     35 H10        -0.1026    3.3887   -0.7735 H         1 <0>         0.2218
     36 H11         0.1236   -0.0712   -0.0579 H         1 <0>         0.1861
     37 H12         0.0188    3.5709    0.9018 H         1 <0>         0.1522
     38 H13         1.8552    4.8040    1.9738 H         1 <0>         0.1469
     39 H14         4.3286    1.3218    1.7728 H         1 <0>         0.1457
     40 H15         2.4983    0.0737    0.7080 H         1 <0>         0.1386
     41 H16         4.8019    4.2760    1.9009 H         1 <0>         0.2308
@<TRIPOS>BOND
     1    1    2 1
     2    1   26 1
     3    1   27 1
     4    1   28 1
     5    2    3 1
     6    2   29 1
     7    2   30 1
     8    3    7 1
     9    3    4 2
    10    4    5 1
    11    4   31 1
    12    5   11 1
    13    5    6 2
    14    6    7 1
    15    6    8 1
    16    8    9 2
    17    9   10 1
    18    9   32 1
    19   10   11 am
    20   10   13 1
    21   11   12 2
    22   13   14 1
    23   13   33 1
    24   13   34 1
    25   14   15 2
    26   14   16 am
    27   16   17 1
    28   16   35 1
    29   17   18 2
    30   18   19 1
    31   18   36 1
    32   19   24 ar
    33   19   20 ar
    34   20   21 ar
    35   20   37 1
    36   21   22 ar
    37   21   38 1
    38   22   23 ar
    39   22   25 1
    40   23   24 ar
    41   23   39 1
    42   24   40 1
    43   25   41 1
@<TRIPOS>MOLECULE
ZINC00970022
   45    47     0     0     0
SMALL
USER_CHARGES

@<TRIPOS>ATOM
      1 C1         10.4779   -5.3060    4.5321 C.3       1 <0>        -0.0643
      2 O1         10.6718   -3.8934    4.4372 O.3       1 <0>        -0.2084
      3 C2          9.5591   -3.1133    4.4800 C.ar      1 <0>         0.1136
      4 C3          9.6757   -1.7337    4.3929 C.ar      1 <0>        -0.1535
      5 C4          8.5458   -0.9410    4.4364 C.ar      1 <0>        -0.0616
      6 C5          7.2933   -1.5249    4.5672 C.ar      1 <0>         0.0056
      7 C6          7.1775   -2.9051    4.6596 C.ar      1 <0>        -0.0584
      8 C7          8.3075   -3.6973    4.6103 C.ar      1 <0>        -0.2168
      9 N1          6.1447   -0.7196    4.6119 N.am      1 <0>        -0.2624
     10 C8          5.5150   -0.4124    3.4580 C.2       1 <0>         0.3122
     11 O2          5.9239   -0.8184    2.3913 O.2       1 <0>        -0.2935
     12 C9          4.2770    0.4600    3.5455 C.3       1 <0>        -0.1720
     13 H1          4.4482    1.3529    2.9442 H         1 <0>         0.1606
     14 C10         3.8669    0.9043    4.9368 C.2       1 <0>         0.3028
     15 O3          2.8922    1.6037    5.1116 O.2       1 <0>        -0.2881
     16 N2          4.6277    0.4922    5.9730 N.am      1 <0>        -0.3478
     17 C11         5.7063   -0.2797    5.7969 C.2       1 <0>         0.4019
     18 O4          6.3336   -0.6045    6.7853 O.2       1 <0>        -0.3491
     19 C12         3.1078   -0.3093    2.9274 C.3       1 <0>        -0.1023
     20 C13         1.8892    0.5763    2.8868 C.ar      1 <0>        -0.0664
     21 C14         1.0123    0.5923    3.9556 C.ar      1 <0>        -0.1074
     22 C15        -0.1072    1.4026    3.9230 C.ar      1 <0>        -0.1161
     23 C16        -0.3494    2.2055    2.8199 C.ar      1 <0>         0.0518
     24 C17         0.5301    2.1852    1.7418 C.ar      1 <0>         0.0693
     25 C18         1.6504    1.3706    1.7809 C.ar      1 <0>        -0.2004
     26 O5          0.2937    2.9671    0.6546 O.3       1 <0>        -0.1998
     27 C19         1.2423    2.8992   -0.4120 C.3       1 <0>        -0.0649
     28 O6         -1.4473    3.0075    2.7886 O.3       1 <0>        -0.2758
     29 H2         11.4436   -5.8093    4.4852 H         1 <0>         0.1110
     30 H3          9.9902   -5.5430    5.4777 H         1 <0>         0.0705
     31 H4          9.8518   -5.6431    3.7060 H         1 <0>         0.0698
     32 H5         10.6503   -1.2795    4.2915 H         1 <0>         0.1506
     33 H6          8.6366    0.1330    4.3682 H         1 <0>         0.1419
     34 H7          6.2035   -3.3595    4.7655 H         1 <0>         0.1373
     35 H8          8.2172   -4.7714    4.6777 H         1 <0>         0.1413
     36 H9          4.3853    0.7639    6.8720 H         1 <0>         0.2719
     37 H10         2.8952   -1.1926    3.5296 H         1 <0>         0.0966
     38 H11         3.3690   -0.6147    1.9141 H         1 <0>         0.1190
     39 H12         1.2025   -0.0294    4.8179 H         1 <0>         0.1315
     40 H13        -0.7907    1.4133    4.7591 H         1 <0>         0.1457
     41 H14         2.3368    1.3560    0.9472 H         1 <0>         0.1375
     42 H15         1.2909    1.8782   -0.7906 H         1 <0>         0.0652
     43 H16         2.2242    3.1976   -0.0446 H         1 <0>         0.0682
     44 H17         0.9354    3.5700   -1.2145 H         1 <0>         0.1100
     45 H18        -2.2316    2.5861    2.4112 H         1 <0>         0.2232
@<TRIPOS>BOND
     1    1    2 1
     2    1   29 1
     3    1   30 1
     4    1   31 1
     5    2    3 1
     6    3    8 ar
     7    3    4 ar
     8    4    5 ar
     9    4   32 1
    10    5    6 ar
    11    5   33 1
    12    6    7 ar
    13    6    9 1
    14    7    8 ar
    15    7   34 1
    16    8   35 1
    17    9   17 am
    18    9   10 am
    19   10   11 2
    20   10   12 1
    21   12   13 1
    22   12   14 1
    23   12   19 1
    24   14   15 2
    25   14   16 am
    26   16   17 am
    27   16   36 1
    28   17   18 2
    29   19   20 1
    30   19   37 1
    31   19   38 1
    32   20   25 ar
    33   20   21 ar
    34   21   22 ar
    35   21   39 1
    36   22   23 ar
    37   22   40 1
    38   23   24 ar
    39   23   28 1
    40   24   25 ar
    41   24   26 1
    42   25   41 1
    43   26   27 1
    44   27   42 1
    45   27   43 1
    46   27   44 1
    47   28   45 1
@<TRIPOS>MOLECULE
ZINC00971529
   48    51     0     0     0
SMALL
USER_CHARGES

@<TRIPOS>ATOM
      1 C1          1.9757    0.7020    1.5018 C.3       1 <0>        -0.2256
      2 C2          2.0818   -0.6593    0.8116 C.3       1 <0>        -0.1172
      3 C3          0.7095   -1.1145    0.3843 C.2       1 <0>         0.0018
      4 C4          0.3343   -2.2810   -0.1527 C.2       1 <0>        -0.2597
      5 C5         -1.0682   -2.2215   -0.3427 C.2       1 <0>         0.0622
      6 N1         -1.4965   -1.0569    0.0479 N.2       1 <0>        -0.0609
      7 N2         -0.3960   -0.3317    0.5129 N.pl3     1 <0>        -0.1938
      8 H1         -0.4173    0.5996    0.8765 H         1 <0>         0.2940
      9 O1         -1.7846   -3.2632   -0.8455 O.3       1 <0>        -0.1028
     10 C6         -1.2024   -4.4745   -0.7543 C.2       1 <0>         0.2711
     11 C7          0.1294   -4.6613   -0.6491 C.2       1 <0>        -0.2731
     12 C8          1.1255   -3.5165   -0.5436 C.3       1 <0>         0.1329
     13 C9          2.1392   -3.8334    0.5271 C.3       1 <0>        -0.1643
     14 C10         3.5922   -3.4878    0.2845 C.3       1 <0>        -0.0239
     15 N3          3.9305   -3.2228   -1.1080 N.am      1 <0>        -0.3407
     16 C11         2.9671   -2.5012   -1.9496 C.3       1 <0>        -0.0138
     17 C12         1.6794   -3.3189   -1.9498 C.3       1 <0>        -0.1643
     18 C13         5.1103   -3.6304   -1.6239 C.2       1 <0>         0.3542
     19 O2          5.3371   -3.4869   -2.8095 O.2       1 <0>        -0.3675
     20 C14         6.1257   -4.2510   -0.7467 C.ar      1 <0>        -0.1239
     21 C15         6.1250   -3.9853    0.6235 C.ar      1 <0>        -0.1263
     22 C16         7.0721   -4.5718    1.4372 C.ar      1 <0>        -0.1414
     23 C17         8.0281   -5.4131    0.8962 C.ar      1 <0>        -0.1056
     24 C18         8.0379   -5.6761   -0.4621 C.ar      1 <0>        -0.1384
     25 C19         7.0929   -5.1006   -1.2861 C.ar      1 <0>        -0.0659
     26 C20         0.6013   -6.0115   -0.6943 C.1       1 <0>        -0.0647
     27 N4          0.9760   -7.0834   -0.7301 N.1       1 <0>        -0.0800
     28 N5         -2.0089   -5.5830   -0.7974 N.pl3     1 <0>        -0.3879
     29 H2          1.6330    1.4475    0.7841 H         1 <0>         0.0768
     30 H3          1.2650    0.6373    2.3257 H         1 <0>         0.0774
     31 H4          2.9534    0.9913    1.8872 H         1 <0>         0.0912
     32 H5          2.5062   -1.3858    1.5046 H         1 <0>         0.1083
     33 H6          2.7252   -0.5736   -0.0640 H         1 <0>         0.1142
     34 H7          1.8203   -3.3023    1.4551 H         1 <0>         0.0846
     35 H8          2.0912   -4.8891    0.8340 H         1 <0>         0.1010
     36 H9          4.2157   -4.3344    0.6307 H         1 <0>         0.1118
     37 H10         3.8902   -2.6329    0.9044 H         1 <0>         0.0649
     38 H11         3.3601   -2.4353   -2.9678 H         1 <0>         0.1274
     39 H12         2.7934   -1.5023   -1.5694 H         1 <0>         0.0797
     40 H13         1.8707   -4.2905   -2.4146 H         1 <0>         0.1061
     41 H14         0.9275   -2.7997   -2.5581 H         1 <0>         0.0953
     42 H15         5.3821   -3.3252    1.0464 H         1 <0>         0.1455
     43 H16         7.0699   -4.3705    2.4983 H         1 <0>         0.1305
     44 H17         8.7701   -5.8661    1.5369 H         1 <0>         0.1310
     45 H18         8.7868   -6.3337   -0.8782 H         1 <0>         0.1358
     46 H19         7.1016   -5.3068   -2.3462 H         1 <0>         0.1545
     47 H20        -1.6176   -6.4695   -0.7525 H         1 <0>         0.2584
     48 H21        -2.9705   -5.4805   -0.8728 H         1 <0>         0.2312
@<TRIPOS>BOND
     1    1    2 1
     2    1   29 1
     3    1   30 1
     4    1   31 1
     5    2    3 1
     6    2   32 1
     7    2   33 1
     8    3    7 1
     9    3    4 2
    10    4   12 1
    11    4    5 1
    12    5    6 2
    13    5    9 1
    14    6    7 1
    15    7    8 1
    16    9   10 1
    17   10   11 2
    18   10   28 1
    19   11   12 1
    20   11   26 1
    21   12   17 1
    22   12   13 1
    23   13   14 1
    24   13   34 1
    25   13   35 1
    26   14   15 1
    27   14   36 1
    28   14   37 1
    29   15   16 1
    30   15   18 am
    31   16   17 1
    32   16   38 1
    33   16   39 1
    34   17   40 1
    35   17   41 1
    36   18   19 2
    37   18   20 1
    38   20   25 ar
    39   20   21 ar
    40   21   22 ar
    41   21   42 1
    42   22   23 ar
    43   22   43 1
    44   23   24 ar
    45   23   44 1
    46   24   25 ar
    47   24   45 1
    48   25   46 1
    49   26   27 3
    50   28   47 1
    51   28   48 1
@<TRIPOS>MOLECULE
ZINC00971529
   48    51     0     0     0
SMALL
USER_CHARGES

@<TRIPOS>ATOM
      1 C1          1.9744    0.6981    1.5101 C.3       1 <0>        -0.2081
      2 C2          2.0811   -0.6613    0.8162 C.3       1 <0>        -0.0953
      3 C3          0.7090   -1.1158    0.3875 C.2       1 <0>        -0.0358
      4 C4          0.3355   -2.2781   -0.1597 C.2       1 <0>        -0.2549
      5 C5         -1.0663   -2.2168   -0.3543 C.2       1 <0>         0.0782
      6 N1         -1.4970   -1.0581    0.0510 N.pl3     1 <0>        -0.1154
      7 N2         -0.3968   -0.3338    0.5181 N.2       1 <0>        -0.1117
      8 H1         -2.4456   -0.7422    0.0318 H         1 <0>         0.2883
      9 O1         -1.7815   -3.2556   -0.8648 O.3       1 <0>        -0.1364
     10 C6         -1.2003   -4.4677   -0.7775 C.2       1 <0>         0.2649
     11 C7          0.1310   -4.6558   -0.6686 C.2       1 <0>        -0.2562
     12 C8          1.1274   -3.5121   -0.5540 C.3       1 <0>         0.1308
     13 C9          2.1371   -3.8349    0.5187 C.3       1 <0>        -0.1631
     14 C10         3.5912   -3.4890    0.2829 C.3       1 <0>        -0.0234
     15 N3          3.9345   -3.2173   -1.1071 N.am      1 <0>        -0.3399
     16 C11         2.9744   -2.4910   -1.9485 C.3       1 <0>        -0.0137
     17 C12         1.6863   -3.3079   -1.9572 C.3       1 <0>        -0.1642
     18 C13         5.1159   -3.6231   -1.6209 C.2       1 <0>         0.3542
     19 O2          5.3469   -3.4738   -2.8050 O.2       1 <0>        -0.3690
     20 C14         6.1278   -4.2486   -0.7433 C.ar      1 <0>        -0.1238
     21 C15         6.1225   -3.9896    0.6282 C.ar      1 <0>        -0.1255
     22 C16         7.0664   -4.5807    1.4423 C.ar      1 <0>        -0.1414
     23 C17         8.0238   -5.4199    0.9005 C.ar      1 <0>        -0.1061
     24 C18         8.0382   -5.6762   -0.4590 C.ar      1 <0>        -0.1391
     25 C19         7.0964   -5.0961   -1.2835 C.ar      1 <0>        -0.0666
     26 C20         0.6023   -6.0060   -0.7188 C.1       1 <0>        -0.0670
     27 N4          0.9765   -7.0780   -0.7586 N.1       1 <0>        -0.0740
     28 N5         -2.0073   -5.5755   -0.8289 N.pl3     1 <0>        -0.3910
     29 H2          1.6315    1.4454    0.7944 H         1 <0>         0.0869
     30 H3          1.2636    0.6309    2.3337 H         1 <0>         0.0856
     31 H4          2.9520    0.9867    1.8964 H         1 <0>         0.0713
     32 H5          2.5057   -1.3895    1.5073 H         1 <0>         0.0961
     33 H6          2.7246   -0.5730   -0.0591 H         1 <0>         0.1042
     34 H7          1.8153   -3.3082    1.4482 H         1 <0>         0.0889
     35 H8          2.0875   -4.8921    0.8202 H         1 <0>         0.0978
     36 H9          4.2130   -4.3376    0.6270 H         1 <0>         0.1100
     37 H10         3.8875   -2.6373    0.9080 H         1 <0>         0.0700
     38 H11         3.3710   -2.4203   -2.9650 H         1 <0>         0.1263
     39 H12         2.8000   -1.4939   -1.5640 H         1 <0>         0.0863
     40 H13         1.8787   -4.2773   -2.4262 H         1 <0>         0.1034
     41 H14         0.9368   -2.7853   -2.5656 H         1 <0>         0.0922
     42 H15         5.3785   -3.3312    1.0518 H         1 <0>         0.1471
     43 H16         7.0606   -4.3846    2.5044 H         1 <0>         0.1307
     44 H17         8.7633   -5.8765    1.5416 H         1 <0>         0.1305
     45 H18         8.7882   -6.3322   -0.8758 H         1 <0>         0.1351
     46 H19         7.1087   -5.2970   -2.3445 H         1 <0>         0.1539
     47 H20        -1.6167   -6.4624   -0.7870 H         1 <0>         0.2603
     48 H21        -2.9686   -5.4721   -0.9071 H         1 <0>         0.2284
@<TRIPOS>BOND
     1    1    2 1
     2    1   29 1
     3    1   30 1
     4    1   31 1
     5    2    3 1
     6    2   32 1
     7    2   33 1
     8    3    4 1
     9    3    7 2
    10    4   12 1
    11    4    5 2
    12    5    9 1
    13    5    6 1
    14    6    8 1
    15    6    7 1
    16    9   10 1
    17   10   11 2
    18   10   28 1
    19   11   12 1
    20   11   26 1
    21   12   17 1
    22   12   13 1
    23   13   14 1
    24   13   34 1
    25   13   35 1
    26   14   15 1
    27   14   36 1
    28   14   37 1
    29   15   16 1
    30   15   18 am
    31   16   17 1
    32   16   38 1
    33   16   39 1
    34   17   40 1
    35   17   41 1
    36   18   19 2
    37   18   20 1
    38   20   25 ar
    39   20   21 ar
    40   21   22 ar
    41   21   42 1
    42   22   23 ar
    43   22   43 1
    44   23   24 ar
    45   23   44 1
    46   24   25 ar
    47   24   45 1
    48   25   46 1
    49   26   27 3
    50   28   47 1
    51   28   48 1
@<TRIPOS>MOLECULE
ZINC00972467
   44    47     0     0     0
SMALL
USER_CHARGES

@<TRIPOS>ATOM
      1 C1          1.6732    5.0496    6.2501 C.3       1 <0>        -0.0635
      2 O1          2.5554    5.4200    5.1887 O.3       1 <0>        -0.1960
      3 C2          2.2337    4.9889    3.9396 C.ar      1 <0>         0.0726
      4 C3          1.0939    4.2266    3.7403 C.ar      1 <0>        -0.1907
      5 C4          0.7651    3.7943    2.4690 C.ar      1 <0>        -0.1181
      6 C5          1.5774    4.1112    1.3961 C.ar      1 <0>        -0.0747
      7 C6          2.7160    4.8714    1.5881 C.ar      1 <0>        -0.1612
      8 C7          3.0483    5.3127    2.8589 C.ar      1 <0>         0.0731
      9 O2          4.1678    6.0609    3.0494 O.3       1 <0>        -0.1974
     10 C8          4.9559    6.3550    1.8942 C.3       1 <0>        -0.0664
     11 C9          1.2176    3.6322    0.0134 C.3       1 <0>         0.0848
     12 H1          1.9701    3.9772   -0.6956 H         1 <0>         0.1273
     13 C10         1.1746    2.1279    0.0023 C.2       1 <0>        -0.2581
     14 C11        -0.0179    1.4672    0.0101 C.2       1 <0>         0.1667
     15 C12         0.0021   -0.0041    0.0020 C.ar      1 <0>        -0.1362
     16 C13        -1.1838   -0.7414    0.0110 C.ar      1 <0>        -0.0609
     17 C14        -1.1292   -2.1175    0.0039 C.ar      1 <0>        -0.1579
     18 C15         0.0950   -2.7698   -0.0125 C.ar      1 <0>        -0.0732
     19 C16         1.2733   -2.0535   -0.0223 C.ar      1 <0>        -0.1457
     20 C17         1.2407   -0.6651   -0.0145 C.ar      1 <0>         0.1355
     21 O3          2.3843    0.0531   -0.0230 O.3       1 <0>        -0.1697
     22 C18         2.3743    1.3952   -0.0151 C.2       1 <0>         0.3748
     23 O4          3.4348    1.9954   -0.0236 O.2       1 <0>        -0.2910
     24 O5         -1.1902    2.1291    0.0193 O.3       1 <0>        -0.1419
     25 C19        -1.2370    3.4218   -0.3445 C.2       1 <0>         0.2557
     26 C20        -0.1234    4.1925   -0.3715 C.2       1 <0>        -0.2498
     27 C21        -0.2251    5.5634   -0.7726 C.1       1 <0>        -0.0630
     28 N1         -0.3058    6.6509   -1.0909 N.1       1 <0>        -0.0668
     29 N2         -2.4420    3.9731   -0.7021 N.pl3     1 <0>        -0.3850
     30 H2          0.6779    5.4466    6.0505 H         1 <0>         0.0645
     31 H3          1.6239    3.9629    6.3190 H         1 <0>         0.0646
     32 H4          2.0450    5.4568    7.1903 H         1 <0>         0.1077
     33 H5          0.4600    3.9739    4.5774 H         1 <0>         0.1373
     34 H6         -0.1261    3.2042    2.3143 H         1 <0>         0.1253
     35 H7          3.3467    5.1210    0.7477 H         1 <0>         0.1482
     36 H8          5.2990    5.4245    1.4420 H         1 <0>         0.0723
     37 H9          4.3529    6.9082    1.1742 H         1 <0>         0.0667
     38 H10         5.8169    6.9566    2.1853 H         1 <0>         0.1071
     39 H11        -2.1379   -0.2355    0.0229 H         1 <0>         0.1481
     40 H12        -2.0440   -2.6916    0.0110 H         1 <0>         0.1415
     41 H13         0.1255   -3.8494   -0.0181 H         1 <0>         0.1439
     42 H14         2.2208   -2.5718   -0.0361 H         1 <0>         0.1587
     43 H15        -2.4890    4.9042   -0.9701 H         1 <0>         0.2619
     44 H16        -3.2467    3.4316   -0.6869 H         1 <0>         0.2290
@<TRIPOS>BOND
     1    1    2 1
     2    1   30 1
     3    1   31 1
     4    1   32 1
     5    2    3 1
     6    3    8 ar
     7    3    4 ar
     8    4    5 ar
     9    4   33 1
    10    5    6 ar
    11    5   34 1
    12    6    7 ar
    13    6   11 1
    14    7    8 ar
    15    7   35 1
    16    8    9 1
    17    9   10 1
    18   10   36 1
    19   10   37 1
    20   10   38 1
    21   11   12 1
    22   11   26 1
    23   11   13 1
    24   13   22 1
    25   13   14 2
    26   14   15 1
    27   14   24 1
    28   15   20 ar
    29   15   16 ar
    30   16   17 ar
    31   16   39 1
    32   17   18 ar
    33   17   40 1
    34   18   19 ar
    35   18   41 1
    36   19   20 ar
    37   19   42 1
    38   20   21 1
    39   21   22 1
    40   22   23 2
    41   24   25 1
    42   25   26 2
    43   25   29 1
    44   26   27 1
    45   27   28 3
    46   29   43 1
    47   29   44 1
@<TRIPOS>MOLECULE
ZINC00978964
   48    50     0     0     0
SMALL
USER_CHARGES

@<TRIPOS>ATOM
      1 C1         -3.6321    1.2537   -0.0369 C.3       1 <0>        -0.2407
      2 C2         -2.1323    1.1940    0.2597 C.3       1 <0>         0.0473
      3 H1         -1.6437    0.5262   -0.4499 H         1 <0>         0.0861
      4 C3         -1.5295    2.5974    0.1430 C.3       1 <0>        -0.1659
      5 C4         -0.0618    2.5561    0.5748 C.3       1 <0>        -0.1583
      6 C5          0.0293    2.1120    2.0365 C.3       1 <0>        -0.1698
      7 C6         -0.5553    0.7029    2.1753 C.3       1 <0>        -0.0057
      8 N1         -1.9188    0.7006    1.6278 N.pl3     1 <0>        -0.8331
      9 S1         -3.1913    0.1530    2.5351 S.o2      1 <0>         2.7638
     10 O1         -2.7475    0.1296    3.8848 O.2       1 <0>        -0.9137
     11 O2         -4.3327    0.8913    2.1211 O.2       1 <0>        -0.9183
     12 C7         -3.4795   -1.5221    2.0707 C.ar      1 <0>        -0.7362
     13 C8         -4.4724   -1.8219    1.1549 C.ar      1 <0>        -0.0419
     14 C9         -4.7000   -3.1308    0.7834 C.ar      1 <0>        -0.1298
     15 C10        -3.9331   -4.1549    1.3415 C.ar      1 <0>        -0.0777
     16 C11        -2.9365   -3.8460    2.2688 C.ar      1 <0>        -0.0887
     17 C12        -2.7157   -2.5324    2.6277 C.ar      1 <0>        -0.0365
     18 C13        -4.1748   -5.5601    0.9519 C.2       1 <0>         0.3411
     19 O3         -3.5050   -6.4499    1.4394 O.2       1 <0>        -0.3435
     20 N2         -5.1378   -5.8550    0.0563 N.am      1 <0>        -0.3219
     21 C14        -5.3041   -7.1737   -0.3844 C.ar      1 <0>         0.0511
     22 C15        -4.1992   -8.0026   -0.5282 C.ar      1 <0>        -0.1125
     23 C16        -4.3644   -9.3042   -0.9587 C.ar      1 <0>        -0.1357
     24 C17        -5.6326   -9.7809   -1.2567 C.ar      1 <0>         0.0563
     25 C18        -6.7363   -8.9519   -1.1183 C.ar      1 <0>        -0.1366
     26 C19        -6.5732   -7.6515   -0.6833 C.ar      1 <0>        -0.1463
     27 O4         -5.7940  -11.0612   -1.6851 O.3       1 <0>        -0.2898
     28 H2         -3.7850    1.4693   -1.0944 H         1 <0>         0.0794
     29 H3         -4.0894    0.2951    0.2083 H         1 <0>         0.0772
     30 H4         -4.0903    2.0391    0.5640 H         1 <0>         0.1300
     31 H5         -2.0789    3.2841    0.7869 H         1 <0>         0.0956
     32 H6         -1.5951    2.9368   -0.8908 H         1 <0>         0.0876
     33 H7          0.4819    1.8507   -0.0537 H         1 <0>         0.0808
     34 H8          0.3759    3.5488    0.4691 H         1 <0>         0.0847
     35 H9          1.0732    2.1053    2.3503 H         1 <0>         0.0883
     36 H10        -0.5348    2.8033    2.6626 H         1 <0>         0.0943
     37 H11         0.0618   -0.0049    1.6219 H         1 <0>         0.0775
     38 H12        -0.5814    0.4201    3.2276 H         1 <0>         0.1154
     39 H13        -5.0681   -1.0290    0.7272 H         1 <0>         0.1591
     40 H14        -5.4726   -3.3631    0.0653 H         1 <0>         0.1303
     41 H15        -2.3398   -4.6337    2.7046 H         1 <0>         0.1640
     42 H16        -1.9447   -2.2920    3.3448 H         1 <0>         0.1526
     43 H17        -5.7158   -5.1538   -0.2830 H         1 <0>         0.2340
     44 H18        -3.2114   -7.6304   -0.3002 H         1 <0>         0.1612
     45 H19        -3.5056   -9.9501   -1.0670 H         1 <0>         0.1450
     46 H20        -7.7233   -9.3237   -1.3505 H         1 <0>         0.1422
     47 H21        -7.4325   -7.0063   -0.5753 H         1 <0>         0.1325
     48 H22        -5.7444  -11.1639   -2.6454 H         1 <0>         0.2247
@<TRIPOS>BOND
     1    1    2 1
     2    1   28 1
     3    1   29 1
     4    1   30 1
     5    2    3 1
     6    2    8 1
     7    2    4 1
     8    4    5 1
     9    4   31 1
    10    4   32 1
    11    5    6 1
    12    5   33 1
    13    5   34 1
    14    6    7 1
    15    6   35 1
    16    6   36 1
    17    7    8 1
    18    7   37 1
    19    7   38 1
    20    8    9 1
    21    9   10 2
    22    9   11 2
    23    9   12 1
    24   12   17 ar
    25   12   13 ar
    26   13   14 ar
    27   13   39 1
    28   14   15 ar
    29   14   40 1
    30   15   16 ar
    31   15   18 1
    32   16   17 ar
    33   16   41 1
    34   17   42 1
    35   18   19 2
    36   18   20 am
    37   20   21 1
    38   20   43 1
    39   21   26 ar
    40   21   22 ar
    41   22   23 ar
    42   22   44 1
    43   23   24 ar
    44   23   45 1
    45   24   25 ar
    46   24   27 1
    47   25   26 ar
    48   25   46 1
    49   26   47 1
    50   27   48 1
@<TRIPOS>MOLECULE
ZINC00980184
   40    42     0     0     0
SMALL
USER_CHARGES

@<TRIPOS>ATOM
      1 C1        -10.8982   -0.4348    2.9818 C.3       1 <0>        -0.2109
      2 C2        -11.3207   -0.1024    1.5493 C.3       1 <0>        -0.1269
      3 C3        -10.1331    0.4226    0.7844 C.ar      1 <0>        -0.0911
      4 C4         -9.3057   -0.4484    0.0883 C.ar      1 <0>        -0.0590
      5 C5         -8.2221    0.0745   -0.6039 C.ar      1 <0>        -0.1489
      6 C6         -8.0002    1.4354   -0.5803 C.ar      1 <0>        -0.0492
      7 N1         -8.8106    2.2428    0.0955 N.ar      1 <0>         0.1334
      8 C7         -9.8531    1.7725    0.7724 C.ar      1 <0>         0.0014
      9 C8         -8.5630    3.5888    0.0991 C.2       1 <0>         0.0101
     10 C9         -7.2753    4.0603    0.0895 C.2       1 <0>        -0.3350
     11 S1         -7.5390    5.8267    0.1081 S.3       1 <0>         0.1661
     12 C10        -9.3247    5.8077    0.1164 C.2       1 <0>         0.2147
     13 O1        -10.1015    6.7454    0.1279 O.2       1 <0>        -0.3033
     14 N2         -9.5907    4.4807    0.1126 N.2       1 <0>        -0.4049
     15 C11        -6.0173    3.3133    0.0744 C.2       1 <0>        -0.0865
     16 N3         -4.8815    3.9507    0.0670 N.2       1 <0>         0.0341
     17 N4         -3.6769    3.2355    0.0526 N.am      1 <0>        -0.3315
     18 C12        -2.5016    3.8951    0.0449 C.2       1 <0>         0.3583
     19 O2         -2.4867    5.1108    0.0505 O.2       1 <0>        -0.2972
     20 C13        -1.2286    3.1392    0.0297 C.ar      1 <0>        -0.0862
     21 C14        -1.2232    1.7406    0.0173 C.ar      1 <0>        -0.1764
     22 C15        -0.0126    1.0758    0.0080 C.ar      1 <0>        -0.0491
     23 N5          1.1253    1.7415    0.0007 N.ar      1 <0>        -0.1493
     24 C16         1.1651    3.0592    0.0069 C.ar      1 <0>        -0.0484
     25 C17         0.0020    3.8039    0.0216 C.ar      1 <0>        -0.1257
     26 H1        -11.7571   -0.8145    3.5351 H         1 <0>         0.0945
     27 H2        -10.1144   -1.1921    2.9630 H         1 <0>         0.0775
     28 H3        -10.5220    0.4654    3.4678 H         1 <0>         0.0855
     29 H4        -12.1044    0.6550    1.5682 H         1 <0>         0.1116
     30 H5        -11.6969   -1.0026    1.0633 H         1 <0>         0.1037
     31 H6         -9.5009   -1.5106    0.0858 H         1 <0>         0.1641
     32 H7         -7.5600   -0.5772   -1.1545 H         1 <0>         0.1714
     33 H8         -7.1588    1.8491   -1.1163 H         1 <0>         0.2103
     34 H9        -10.4898    2.4553    1.3155 H         1 <0>         0.2261
     35 H10        -6.0306    2.2334    0.0695 H         1 <0>         0.0924
     36 H11        -3.6888    2.2656    0.0482 H         1 <0>         0.1998
     37 H12        -2.1516    1.1888    0.0188 H         1 <0>         0.1260
     38 H13         0.0021   -0.0041    0.0020 H         1 <0>         0.1611
     39 H14         2.1202    3.5633    0.0002 H         1 <0>         0.1691
     40 H15         0.0421    4.8832    0.0263 H         1 <0>         0.1685
@<TRIPOS>BOND
     1    1    2 1
     2    1   26 1
     3    1   27 1
     4    1   28 1
     5    2    3 1
     6    2   29 1
     7    2   30 1
     8    3    8 ar
     9    3    4 ar
    10    4    5 ar
    11    4   31 1
    12    5    6 ar
    13    5   32 1
    14    6    7 ar
    15    6   33 1
    16    7    8 ar
    17    7    9 1
    18    8   34 1
    19    9   14 1
    20    9   10 2
    21   10   11 1
    22   10   15 1
    23   11   12 1
    24   12   13 2
    25   12   14 1
    26   15   16 2
    27   15   35 1
    28   16   17 1
    29   17   18 am
    30   17   36 1
    31   18   19 2
    32   18   20 1
    33   20   25 ar
    34   20   21 ar
    35   21   22 ar
    36   21   37 1
    37   22   23 ar
    38   22   38 1
    39   23   24 ar
    40   24   25 ar
    41   24   39 1
    42   25   40 1
@<TRIPOS>MOLECULE
ZINC00989378
   43    45     0     0     0
SMALL
USER_CHARGES

@<TRIPOS>ATOM
      1 C1          1.3833    7.6073   -2.4072 C.3       1 <0>        -0.1720
      2 C2          1.0415    6.8703   -1.1380 C.2       1 <0>         0.1025
      3 C3         -0.0446    6.0845   -1.1173 C.2       1 <0>        -0.1929
      4 C4         -0.4260    5.3335    0.1253 C.3       1 <0>         0.0973
      5 C5         -0.1253    3.8641   -0.0322 C.ar      1 <0>        -0.1241
      6 C6          1.0377    3.1605   -0.2516 C.ar      1 <0>        -0.0575
      7 C7          1.0016    1.7810   -0.3543 C.ar      1 <0>        -0.1546
      8 C8         -0.2039    1.1136   -0.2359 C.ar      1 <0>        -0.0905
      9 C9         -1.3716    1.8160   -0.0218 C.ar      1 <0>        -0.1510
     10 C10        -1.3430    3.2048    0.0882 C.ar      1 <0>         0.0782
     11 N1         -2.3704    4.1244    0.3045 N.am      1 <0>        -0.2671
     12 C11        -1.9199    5.3912    0.3390 C.2       1 <0>         0.3226
     13 O1         -2.5865    6.3900    0.5097 O.2       1 <0>        -0.3078
     14 C12        -3.7774    3.7528    0.4736 C.3       1 <0>         0.0201
     15 C13        -4.4572    3.7343   -0.8713 C.2       1 <0>        -0.1868
     16 C14        -5.0872    2.6580   -1.2720 C.2       1 <0>        -0.2078
     17 C15         0.2949    5.8921    1.3186 C.2       1 <0>        -0.2452
     18 C16         1.3726    6.6993    1.1539 C.2       1 <0>         0.2712
     19 O2          1.8333    7.0226   -0.0668 O.3       1 <0>        -0.1377
     20 N2          2.0092    7.1990    2.2627 N.pl3     1 <0>        -0.3807
     21 C17        -0.1583    5.5705    2.6384 C.1       1 <0>        -0.0619
     22 N3         -0.5178    5.3154    3.6854 N.1       1 <0>        -0.0639
     23 C18        -0.8419    5.9618   -2.2817 C.2       1 <0>         0.3573
     24 O3         -0.7974    4.9428   -2.9448 O.2       1 <0>        -0.3341
     25 O4         -1.6508    6.9750   -2.6553 O.3       1 <0>        -0.2510
     26 C19        -2.4266    6.7828   -3.8399 C.3       1 <0>        -0.0565
     27 H1          0.8314    8.5465   -2.4419 H         1 <0>         0.1152
     28 H2          2.4534    7.8136   -2.4306 H         1 <0>         0.1013
     29 H3          1.1125    6.9947   -3.2672 H         1 <0>         0.1122
     30 H4          1.9773    3.6848   -0.3437 H         1 <0>         0.1310
     31 H5          1.9125    1.2269   -0.5269 H         1 <0>         0.1328
     32 H6         -0.2318    0.0369   -0.3158 H         1 <0>         0.1326
     33 H7         -2.3097    1.2879    0.0648 H         1 <0>         0.1316
     34 H8         -3.8399    2.7631    0.9259 H         1 <0>         0.0978
     35 H9         -4.2700    4.4794    1.1197 H         1 <0>         0.1207
     36 H10        -4.4250    4.6085   -1.5047 H         1 <0>         0.1357
     37 H11        -5.1194    1.7838   -0.6386 H         1 <0>         0.1093
     38 H12        -5.5744    2.6447   -2.2358 H         1 <0>         0.1171
     39 H13         2.7810    7.7774    2.1594 H         1 <0>         0.2312
     40 H14         1.6872    6.9737    3.1496 H         1 <0>         0.2612
     41 H15        -3.0792    5.9194   -3.7106 H         1 <0>         0.0821
     42 H16        -3.0310    7.6705   -4.0264 H         1 <0>         0.1067
     43 H17        -1.7612    6.6119   -4.6861 H         1 <0>         0.0752
@<TRIPOS>BOND
     1    1    2 1
     2    1   27 1
     3    1   28 1
     4    1   29 1
     5    2   19 1
     6    2    3 2
     7    3    4 1
     8    3   23 1
     9    4   12 1
    10    4    5 1
    11    4   17 1
    12    5   10 ar
    13    5    6 ar
    14    6    7 ar
    15    6   30 1
    16    7    8 ar
    17    7   31 1
    18    8    9 ar
    19    8   32 1
    20    9   10 ar
    21    9   33 1
    22   10   11 1
    23   11   12 am
    24   11   14 1
    25   12   13 2
    26   14   15 1
    27   14   34 1
    28   14   35 1
    29   15   16 2
    30   15   36 1
    31   16   37 1
    32   16   38 1
    33   17   18 2
    34   17   21 1
    35   18   19 1
    36   18   20 1
    37   20   39 1
    38   20   40 1
    39   21   22 3
    40   23   24 2
    41   23   25 1
    42   25   26 1
    43   26   41 1
    44   26   42 1
    45   26   43 1
@<TRIPOS>MOLECULE
ZINC00989407
   48    51     0     0     0
SMALL
USER_CHARGES

@<TRIPOS>ATOM
      1 C1         -1.0895    1.0917   -3.9145 C.3       1 <0>        -0.2145
      2 C2         -0.2122    2.3441   -3.9673 C.3       1 <0>        -0.0037
      3 O1          0.1993    2.6936   -2.6441 O.3       1 <0>        -0.2569
      4 C3          0.9853    3.7844   -2.5144 C.2       1 <0>         0.3885
      5 O2          1.3115    4.4208   -3.5006 O.2       1 <0>        -0.4090
      6 C4          1.4257    4.1842   -1.2445 C.2       1 <0>        -0.3083
      7 C5          2.1051    5.3523   -1.1216 C.2       1 <0>         0.3116
      8 O3          2.5686    5.8268    0.0509 O.3       1 <0>        -0.1452
      9 C6          2.1211    5.2485    1.1928 C.2       1 <0>         0.1170
     10 C7          1.4382    4.0623    1.2006 C.2       1 <0>        -0.2603
     11 C8          1.1291    3.7537    2.5182 C.2       1 <0>        -0.0280
     12 N1          1.6010    4.7096    3.2827 N.2       1 <0>        -0.0689
     13 N2          2.2298    5.6617    2.4653 N.pl3     1 <0>        -0.1691
     14 H1          2.6791    6.4994    2.7759 H         1 <0>         0.2877
     15 C9          0.3806    2.5333    2.9886 C.3       1 <0>        -0.1462
     16 C10         1.1300    3.3054   -0.0601 C.3       1 <0>         0.1047
     17 C11         1.8986    2.0251   -0.1301 C.ar      1 <0>        -0.1252
     18 C12         3.2530    1.7705   -0.1504 C.ar      1 <0>        -0.0567
     19 C13         3.6437    0.4380   -0.2246 C.ar      1 <0>        -0.1662
     20 C14         2.7150   -0.5815   -0.2758 C.ar      1 <0>        -0.0939
     21 C15         1.3514   -0.3336   -0.2550 C.ar      1 <0>        -0.1691
     22 C16         0.9458    0.9998   -0.1805 C.ar      1 <0>         0.0807
     23 N3         -0.3325    1.5290   -0.1506 N.am      1 <0>        -0.2643
     24 C17        -0.3207    2.8767   -0.0753 C.2       1 <0>         0.3427
     25 O4         -1.2891    3.6056   -0.0323 O.2       1 <0>        -0.3192
     26 C18        -1.5543    0.7217   -0.1930 C.3       1 <0>         0.0232
     27 C19        -1.9718    0.3682    1.2112 C.2       1 <0>        -0.2041
     28 C20        -3.1779    0.6621    1.6295 C.2       1 <0>        -0.1933
     29 N4          2.3328    6.0898   -2.2527 N.pl3     1 <0>        -0.3878
     30 H2         -1.9684    1.2894   -3.3009 H         1 <0>         0.0834
     31 H3         -1.4033    0.8251   -4.9237 H         1 <0>         0.0869
     32 H4         -0.5216    0.2683   -3.4812 H         1 <0>         0.0838
     33 H5         -0.7800    3.1675   -4.4005 H         1 <0>         0.0853
     34 H6          0.6668    2.1464   -4.5808 H         1 <0>         0.0860
     35 H7         -0.6876    2.7491    3.0129 H         1 <0>         0.1037
     36 H8          0.5686    1.7057    2.3046 H         1 <0>         0.0985
     37 H9          0.7193    2.2623    3.9885 H         1 <0>         0.0936
     38 H10         3.9782    2.5699   -0.1105 H         1 <0>         0.1396
     39 H11         4.6961    0.1958   -0.2428 H         1 <0>         0.1294
     40 H12         3.0609   -1.6030   -0.3335 H         1 <0>         0.1281
     41 H13         0.6327   -1.1388   -0.2950 H         1 <0>         0.1363
     42 H14        -2.3489    1.2904   -0.6761 H         1 <0>         0.1150
     43 H15        -1.3668   -0.1919   -0.7572 H         1 <0>         0.0966
     44 H16        -1.2767   -0.1274    1.8726 H         1 <0>         0.1281
     45 H17        -3.4771    0.4088    2.6358 H         1 <0>         0.1149
     46 H18        -3.8731    1.1578    0.9680 H         1 <0>         0.1184
     47 H19         1.6299    6.1948   -2.9129 H         1 <0>         0.2790
     48 H20         3.1970    6.5072   -2.3938 H         1 <0>         0.2279
@<TRIPOS>BOND
     1    1    2 1
     2    1   30 1
     3    1   31 1
     4    1   32 1
     5    2    3 1
     6    2   33 1
     7    2   34 1
     8    3    4 1
     9    4    5 2
    10    4    6 1
    11    6   16 1
    12    6    7 2
    13    7    8 1
    14    7   29 1
    15    8    9 1
    16    9   13 1
    17    9   10 2
    18   10   11 1
    19   10   16 1
    20   11   12 2
    21   11   15 1
    22   12   13 1
    23   13   14 1
    24   15   35 1
    25   15   36 1
    26   15   37 1
    27   16   24 1
    28   16   17 1
    29   17   22 ar
    30   17   18 ar
    31   18   19 ar
    32   18   38 1
    33   19   20 ar
    34   19   39 1
    35   20   21 ar
    36   20   40 1
    37   21   22 ar
    38   21   41 1
    39   22   23 1
    40   23   24 am
    41   23   26 1
    42   24   25 2
    43   26   27 1
    44   26   42 1
    45   26   43 1
    46   27   28 2
    47   27   44 1
    48   28   45 1
    49   28   46 1
    50   29   47 1
    51   29   48 1
@<TRIPOS>MOLECULE
ZINC00994145
   48    50     0     0     0
SMALL
USER_CHARGES

@<TRIPOS>ATOM
      1 C1          1.1140    7.1608    1.4450 C.3       1 <0>        -0.1755
      2 C2          0.1433    6.0640    1.7997 C.ar      1 <0>        -0.0644
      3 C3          0.6104    4.7980    2.1006 C.ar      1 <0>        -0.1314
      4 C4         -0.2799    3.7924    2.4269 C.ar      1 <0>        -0.1160
      5 C5         -1.6375    4.0526    2.4527 C.ar      1 <0>        -0.0975
      6 C6         -2.1048    5.3168    2.1467 C.ar      1 <0>        -0.0582
      7 C7         -1.2140    6.3239    1.8246 C.ar      1 <0>        -0.1279
      8 C8         -3.5851    5.5988    2.1688 C.3       1 <0>        -0.1786
      9 C9         -2.6082    2.9561    2.8084 C.3       1 <0>         0.0276
     10 H1         -3.6053    3.3793    2.9304 H         1 <0>         0.1150
     11 C10        -2.6309    1.9128    1.6898 C.3       1 <0>        -0.1679
     12 H2         -3.1069    2.2875    0.8941 H         1 <0>         0.1332
     13 C11        -3.3491    0.6775    2.1684 C.2       1 <0>         0.3352
     14 O1         -4.0505    0.0528    1.4015 O.2       1 <0>        -0.3158
     15 N1         -3.2162    0.2640    3.4409 N.am      1 <0>        -0.2254
     16 C12        -2.5132    1.0140    4.3592 C.2       1 <0>         0.2837
     17 C13        -2.1787    2.3040    4.0973 C.2       1 <0>        -0.2758
     18 C14        -1.4131    3.0487    5.0512 C.1       1 <0>        -0.0540
     19 N2         -0.8057    3.6394    5.8079 N.1       1 <0>        -0.0817
     20 N3         -2.1453    0.4486    5.5562 N.pl3     1 <0>        -0.3937
     21 C15        -3.8002   -0.9457    3.8387 C.ar      1 <0>         0.0216
     22 C16        -3.2958   -2.1502    3.3666 C.ar      1 <0>        -0.1006
     23 C17        -3.8701   -3.3414    3.7652 C.ar      1 <0>        -0.1229
     24 C18        -4.9535   -3.3348    4.6245 C.ar      1 <0>        -0.1167
     25 C19        -5.4616   -2.1367    5.0920 C.ar      1 <0>        -0.1250
     26 C20        -4.8881   -0.9425    4.7015 C.ar      1 <0>        -0.1239
     27 C21        -1.2176    1.5556    1.3076 C.2       1 <0>         0.2492
     28 O2         -0.6297    0.6897    1.9101 O.2       1 <0>        -0.2873
     29 C22        -0.5379    2.2789    0.1737 C.3       1 <0>        -0.2524
     30 H3          1.2803    7.1644    0.3678 H         1 <0>         0.0846
     31 H4          0.7038    8.1226    1.7526 H         1 <0>         0.0833
     32 H5          2.0602    6.9885    1.9581 H         1 <0>         0.0847
     33 H6          1.6709    4.5950    2.0812 H         1 <0>         0.1338
     34 H7          0.0849    2.8035    2.6619 H         1 <0>         0.1484
     35 H8         -1.5788    7.3129    1.5899 H         1 <0>         0.1329
     36 H9         -3.8958    5.8296    3.1877 H         1 <0>         0.0929
     37 H10        -3.8028    6.4482    1.5214 H         1 <0>         0.0828
     38 H11        -4.1272    4.7226    1.8132 H         1 <0>         0.0803
     39 H12        -1.5931    0.9470    6.1786 H         1 <0>         0.2505
     40 H13        -2.4379   -0.4491    5.7787 H         1 <0>         0.2313
     41 H14        -2.4525   -2.1557    2.6919 H         1 <0>         0.1519
     42 H15        -3.4757   -4.2787    3.4015 H         1 <0>         0.1392
     43 H16        -5.4039   -4.2674    4.9310 H         1 <0>         0.1350
     44 H17        -6.3081   -2.1348    5.7627 H         1 <0>         0.1374
     45 H18        -5.2857   -0.0070    5.0666 H         1 <0>         0.1421
     46 H19        -0.7142    1.7951   -0.6836 H         1 <0>         0.0995
     47 H20         0.5360    2.3139    0.3568 H         1 <0>         0.1106
     48 H21        -0.9281    3.2944    0.1048 H         1 <0>         0.1057
@<TRIPOS>BOND
     1    1    2 1
     2    1   30 1
     3    1   31 1
     4    1   32 1
     5    2    7 ar
     6    2    3 ar
     7    3    4 ar
     8    3   33 1
     9    4    5 ar
    10    4   34 1
    11    5    6 ar
    12    5    9 1
    13    6    7 ar
    14    6    8 1
    15    7   35 1
    16    8   36 1
    17    8   37 1
    18    8   38 1
    19    9   10 1
    20    9   17 1
    21    9   11 1
    22   11   12 1
    23   11   13 1
    24   11   27 1
    25   13   14 2
    26   13   15 am
    27   15   16 1
    28   15   21 1
    29   16   17 2
    30   16   20 1
    31   17   18 1
    32   18   19 3
    33   20   39 1
    34   20   40 1
    35   21   26 ar
    36   21   22 ar
    37   22   23 ar
    38   22   41 1
    39   23   24 ar
    40   23   42 1
    41   24   25 ar
    42   24   43 1
    43   25   26 ar
    44   25   44 1
    45   26   45 1
    46   27   28 2
    47   27   29 1
    48   29   46 1
    49   29   47 1
    50   29   48 1
@<TRIPOS>MOLECULE
ZINC00998370
   41    43     0     0     0
SMALL
USER_CHARGES

@<TRIPOS>ATOM
      1 C1         -1.5884   -0.2684   -3.0192 C.3       1 <0>        -0.2052
      2 C2         -2.5232    0.8499   -2.5538 C.3       1 <0>        -0.1140
      3 C3         -3.1033    0.4928   -1.2095 C.2       1 <0>        -0.0685
      4 C4         -4.2550   -0.1940   -1.1029 C.2       1 <0>        -0.3231
      5 S1         -4.4817   -0.3435    0.6570 S.3       1 <0>         0.5177
      6 C5         -3.0648    0.4889    1.2029 C.2       1 <0>        -0.1389
      7 C6         -2.4468    0.8736    0.0184 C.2       1 <0>        -0.2423
      8 C7         -1.1873    1.6238    0.0165 C.2       1 <0>         0.3636
      9 O1         -1.2038    2.8408    0.0232 O.2       1 <0>        -0.3632
     10 N1         -0.0111    0.9658    0.0074 N.am      1 <0>        -0.4309
     11 N2         -2.6489    0.7178    2.5043 N.am      1 <0>        -0.2726
     12 C8         -3.3865    0.2642    3.5371 C.2       1 <0>         0.3480
     13 O2         -4.4173   -0.3462    3.3265 O.2       1 <0>        -0.2947
     14 C9         -2.9446    0.5074    4.9201 C.2       1 <0>        -0.2419
     15 C10        -1.7735    1.2007    5.1741 C.2       1 <0>         0.0038
     16 C11        -1.3860    1.4126    6.5214 C.ar      1 <0>        -0.1639
     17 C12        -0.2052    2.1116    6.8145 C.ar      1 <0>        -0.0616
     18 C13         0.1616    2.3120    8.1138 C.ar      1 <0>        -0.1580
     19 C14        -0.6262    1.8295    9.1500 C.ar      1 <0>        -0.0644
     20 C15        -1.7902    1.1401    8.8851 C.ar      1 <0>        -0.1510
     21 C16        -2.1855    0.9225    7.5696 C.ar      1 <0>         0.1395
     22 O3         -3.3262    0.2473    7.3129 O.3       1 <0>        -0.1624
     23 C17        -3.7406    0.0247    6.0545 C.2       1 <0>         0.3606
     24 O4         -4.7759   -0.5825    5.8549 O.2       1 <0>        -0.2429
     25 C18        -5.1400   -0.7125   -2.2070 C.3       1 <0>        -0.1233
     26 H1         -0.7818   -0.3919   -2.2966 H         1 <0>         0.0693
     27 H2         -2.1487   -1.1998   -3.1011 H         1 <0>         0.0755
     28 H3         -1.1689   -0.0101   -3.9915 H         1 <0>         0.0742
     29 H4         -3.3299    0.9734   -3.2764 H         1 <0>         0.0915
     30 H5         -1.9629    1.7813   -2.4719 H         1 <0>         0.0995
     31 H6          0.0021   -0.0041    0.0020 H         1 <0>         0.2201
     32 H7          0.8223    1.4622    0.0021 H         1 <0>         0.2247
     33 H8         -1.8269    1.2046    2.6723 H         1 <0>         0.2411
     34 H9         -1.1666    1.5725    4.3618 H         1 <0>         0.1423
     35 H10         0.4126    2.4898    6.0134 H         1 <0>         0.1408
     36 H11         1.0712    2.8497    8.3373 H         1 <0>         0.1421
     37 H12        -0.3240    1.9956   10.1734 H         1 <0>         0.1449
     38 H13        -2.3950    0.7686    9.6992 H         1 <0>         0.1586
     39 H14        -4.8275   -1.7204   -2.4801 H         1 <0>         0.0869
     40 H15        -6.1744   -0.7332   -1.8640 H         1 <0>         0.0873
     41 H16        -5.0582   -0.0589   -3.0754 H         1 <0>         0.0908
@<TRIPOS>BOND
     1    1    2 1
     2    1   26 1
     3    1   27 1
     4    1   28 1
     5    2    3 1
     6    2   29 1
     7    2   30 1
     8    3    7 1
     9    3    4 2
    10    4    5 1
    11    4   25 1
    12    5    6 1
    13    6    7 2
    14    6   11 1
    15    7    8 1
    16    8    9 2
    17    8   10 am
    18   10   31 1
    19   10   32 1
    20   11   12 am
    21   11   33 1
    22   12   13 2
    23   12   14 1
    24   14   23 1
    25   14   15 2
    26   15   16 1
    27   15   34 1
    28   16   21 ar
    29   16   17 ar
    30   17   18 ar
    31   17   35 1
    32   18   19 ar
    33   18   36 1
    34   19   20 ar
    35   19   37 1
    36   20   21 ar
    37   20   38 1
    38   21   22 1
    39   22   23 1
    40   23   24 2
    41   25   39 1
    42   25   40 1
    43   25   41 1
@<TRIPOS>MOLECULE
ZINC00999033
   42    43     0     0     0
SMALL
USER_CHARGES

@<TRIPOS>ATOM
      1 C1          1.6032   -0.1983    0.2959 C.3       1 <0>        -0.2201
      2 C2          0.4047    0.6445   -0.1447 C.3       1 <0>        -0.0079
      3 N1         -0.7059   -0.2387   -0.5090 N.pl3     1 <0>        -0.8839
      4 S1         -2.2343    0.3773   -0.6725 S.o2      1 <0>         2.7623
      5 O1         -3.0695   -0.7056   -1.0585 O.2       1 <0>        -0.9141
      6 O2         -2.4848    1.1560    0.4894 O.2       1 <0>        -0.9139
      7 C3         -2.2018    1.4976   -2.0321 C.ar      1 <0>        -0.7743
      8 C4         -1.9133    2.8331   -1.8189 C.ar      1 <0>        -0.0125
      9 C5         -1.8814    3.7127   -2.8832 C.ar      1 <0>        -0.1819
     10 C6         -2.1503    3.2567   -4.1673 C.ar      1 <0>         0.1147
     11 C7         -2.4453    1.9158   -4.3772 C.ar      1 <0>        -0.1480
     12 C8         -2.4704    1.0404   -3.3093 C.ar      1 <0>        -0.0073
     13 N2         -2.1236    4.1456   -5.2465 N.am      1 <0>        -0.3302
     14 C9         -3.0340    4.0342   -6.2340 C.2       1 <0>         0.3525
     15 O3         -3.9338    3.2219   -6.1424 O.2       1 <0>        -0.3338
     16 C10        -2.9385    4.8998   -7.4284 C.ar      1 <0>        -0.1485
     17 C11        -1.9906    5.9235   -7.4784 C.ar      1 <0>        -0.0595
     18 C12        -1.9064    6.7273   -8.5962 C.ar      1 <0>        -0.1532
     19 C13        -2.7592    6.5210   -9.6663 C.ar      1 <0>        -0.0381
     20 C14        -3.7007    5.5084   -9.6233 C.ar      1 <0>        -0.1280
     21 C15        -3.7917    4.6935   -8.5136 C.ar      1 <0>         0.0582
     22 C16        -4.8138    3.5869   -8.4709 C.3       1 <0>        -0.2193
     23 N3         -4.6091    5.2953  -10.7724 N.pl3     1 <0>         0.5508
     24 O4         -4.4444    5.9225  -11.8034 O.2       1 <0>        -0.3539
     25 O5         -5.5213    4.4927  -10.6869 O.3       1 <0>        -0.3461
     26 H1          1.9101   -0.8493   -0.5227 H         1 <0>         0.0788
     27 H2          2.4295    0.4588    0.5670 H         1 <0>         0.0856
     28 H3          1.3238   -0.8050    1.1573 H         1 <0>         0.0874
     29 H4          0.6841    1.2511   -1.0061 H         1 <0>         0.0706
     30 H5          0.0978    1.2955    0.6739 H         1 <0>         0.0994
     31 H6         -0.5453   -1.1836   -0.6583 H         1 <0>         0.2456
     32 H7         -1.7087    3.1878   -0.8196 H         1 <0>         0.1523
     33 H8         -1.6513    4.7547   -2.7167 H         1 <0>         0.1363
     34 H9         -2.6545    1.5580   -5.3745 H         1 <0>         0.1592
     35 H10        -2.6997   -0.0024   -3.4719 H         1 <0>         0.1563
     36 H11        -1.4498    4.8424   -5.2844 H         1 <0>         0.2351
     37 H12        -1.3249    6.0860   -6.6436 H         1 <0>         0.1343
     38 H13        -1.1736    7.5196   -8.6362 H         1 <0>         0.1513
     39 H14        -2.6891    7.1532  -10.5392 H         1 <0>         0.1688
     40 H15        -5.7331    3.9587   -8.0186 H         1 <0>         0.1199
     41 H16        -5.0205    3.2440   -9.4847 H         1 <0>         0.1268
     42 H17        -4.4269    2.7576   -7.8787 H         1 <0>         0.1281
@<TRIPOS>BOND
     1    1    2 1
     2    1   26 1
     3    1   27 1
     4    1   28 1
     5    2    3 1
     6    2   29 1
     7    2   30 1
     8    3    4 1
     9    3   31 1
    10    4    5 2
    11    4    6 2
    12    4    7 1
    13    7   12 ar
    14    7    8 ar
    15    8    9 ar
    16    8   32 1
    17    9   10 ar
    18    9   33 1
    19   10   11 ar
    20   10   13 1
    21   11   12 ar
    22   11   34 1
    23   12   35 1
    24   13   14 am
    25   13   36 1
    26   14   15 2
    27   14   16 1
    28   16   21 ar
    29   16   17 ar
    30   17   18 ar
    31   17   37 1
    32   18   19 ar
    33   18   38 1
    34   19   20 ar
    35   19   39 1
    36   20   21 ar
    37   20   23 1
    38   21   22 1
    39   22   40 1
    40   22   41 1
    41   22   42 1
    42   23   24 2
    43   23   25 1
@<TRIPOS>MOLECULE
ZINC01000015
   40    41     0     0     0
SMALL
USER_CHARGES

@<TRIPOS>ATOM
      1 C1          2.4139  -10.3640   -1.9347 C.3       1 <0>        -0.2294
      2 C2          2.0905   -9.5712   -0.6667 C.3       1 <0>         0.0101
      3 N1          2.9268   -8.3694   -0.6156 N.pl3     1 <0>        -0.1305
      4 C3          2.4815   -7.1081   -0.4855 C.2       1 <0>        -0.0567
      5 C4          3.5877   -6.2780   -0.4844 C.2       1 <0>        -0.2433
      6 C5          4.7284   -7.1044   -0.6122 C.2       1 <0>        -0.0508
      7 N2          4.3238   -8.3421   -0.6891 N.2       1 <0>        -0.0829
      8 C6          6.1604   -6.6368   -0.6524 C.3       1 <0>        -0.1389
      9 C7          3.5797   -4.8132   -0.3662 C.2       1 <0>         0.0489
     10 C8          2.4079   -4.1513   -0.2499 C.2       1 <0>        -0.2921
     11 C9          2.4003   -2.7383   -0.1359 C.2       1 <0>         0.3524
     12 O1          3.4498   -2.1214   -0.1428 O.2       1 <0>        -0.3692
     13 N3          1.2311   -2.0779   -0.0199 N.am      1 <0>        -0.3274
     14 C10         1.2151   -0.6849   -0.0186 C.ar      1 <0>         0.0939
     15 C11         2.1409    0.0208   -0.7813 C.ar      1 <0>        -0.1413
     16 C12         2.1274    1.3972   -0.7826 C.ar      1 <0>        -0.0468
     17 C13         1.1830    2.0860   -0.0164 C.ar      1 <0>        -0.1539
     18 C14         0.2550    1.3743    0.7489 C.ar      1 <0>        -0.0865
     19 C15         0.2738   -0.0021    0.7458 C.ar      1 <0>        -0.1787
     20 C16         1.1661    3.5617   -0.0150 C.2       1 <0>         0.3521
     21 O2          1.9743    4.1796   -0.6809 O.2       1 <0>        -0.3711
     22 N4          0.2548    4.2245    0.7244 N.am      1 <0>        -0.4309
     23 H1          3.4649  -10.6529   -1.9244 H         1 <0>         0.1054
     24 H2          1.7917  -11.2582   -1.9728 H         1 <0>         0.0853
     25 H3          2.2156   -9.7458   -2.8103 H         1 <0>         0.0868
     26 H4          2.2888  -10.1894    0.2088 H         1 <0>         0.1042
     27 H5          1.0395   -9.2823   -0.6770 H         1 <0>         0.0963
     28 H6          1.4501   -6.7994   -0.3998 H         1 <0>         0.1728
     29 H7          6.5611   -6.6058    0.3608 H         1 <0>         0.0964
     30 H8          6.7509   -7.3264   -1.2557 H         1 <0>         0.0959
     31 H9          6.2050   -5.6402   -1.0915 H         1 <0>         0.0929
     32 H10         4.5108   -4.2659   -0.3723 H         1 <0>         0.1594
     33 H11         1.4769   -4.6986   -0.2438 H         1 <0>         0.1201
     34 H12         0.4008   -2.5726    0.0626 H         1 <0>         0.2320
     35 H13         2.8704   -0.5120   -1.3732 H         1 <0>         0.1668
     36 H14         2.8487    1.9444   -1.3715 H         1 <0>         0.1609
     37 H15        -0.4762    1.9036    1.3417 H         1 <0>         0.1236
     38 H16        -0.4431   -0.5527    1.3369 H         1 <0>         0.1304
     39 H17        -0.3900    3.7315    1.2557 H         1 <0>         0.2142
     40 H18         0.2436    5.1944    0.7254 H         1 <0>         0.2297
@<TRIPOS>BOND
     1    1    2 1
     2    1   23 1
     3    1   24 1
     4    1   25 1
     5    2    3 1
     6    2   26 1
     7    2   27 1
     8    3    7 1
     9    3    4 1
    10    4    5 2
    11    4   28 1
    12    5    6 1
    13    5    9 1
    14    6    7 2
    15    6    8 1
    16    8   29 1
    17    8   30 1
    18    8   31 1
    19    9   10 2
    20    9   32 1
    21   10   11 1
    22   10   33 1
    23   11   12 2
    24   11   13 am
    25   13   14 1
    26   13   34 1
    27   14   19 ar
    28   14   15 ar
    29   15   16 ar
    30   15   35 1
    31   16   17 ar
    32   16   36 1
    33   17   18 ar
    34   17   20 1
    35   18   19 ar
    36   18   37 1
    37   19   38 1
    38   20   21 2
    39   20   22 am
    40   22   39 1
    41   22   40 1
@<TRIPOS>MOLECULE
ZINC01001471
   42    44     0     0     0
SMALL
USER_CHARGES

@<TRIPOS>ATOM
      1 C1         -1.2174    2.1538   -0.1506 C.ar      1 <0>        -0.0877
      2 C2         -1.2360    3.5303   -0.1420 C.ar      1 <0>        -0.1721
      3 C3         -0.0530    4.2425    0.0302 C.ar      1 <0>         0.0882
      4 C4          1.1513    3.5664    0.2005 C.ar      1 <0>        -0.1419
      5 C5          1.1758    2.1900    0.1991 C.ar      1 <0>        -0.0472
      6 C6         -0.0104    1.4717    0.0260 C.ar      1 <0>        -0.1466
      7 C7          0.0123   -0.0040    0.0235 C.2       1 <0>         0.3490
      8 O1          1.0638   -0.5961    0.1722 O.2       1 <0>        -0.3722
      9 N1         -1.1326   -0.6953   -0.1436 N.am      1 <0>        -0.3869
     10 C8         -1.1101   -2.1601   -0.1460 C.3       1 <0>         0.0407
     11 C9         -0.7735   -2.6626   -1.5514 C.3       1 <0>        -0.1734
     12 C10        -0.7500   -4.1924   -1.5540 C.3       1 <0>        -0.1570
     13 C11        -2.1227   -4.7243   -1.1373 C.3       1 <0>        -0.1621
     14 C12        -2.4593   -4.2218    0.2681 C.3       1 <0>        -0.1540
     15 C13        -2.4828   -2.6920    0.2707 C.3       1 <0>        -0.1720
     16 N2         -0.0744    5.6358    0.0325 N.am      1 <0>        -0.3168
     17 C14         0.9694    6.3267   -0.4671 C.2       1 <0>         0.3977
     18 O2          1.8860    5.7377   -1.0062 O.2       1 <0>        -0.3084
     19 C15         0.9998    7.8007   -0.3593 C.2       1 <0>        -0.1165
     20 N3          1.9761    8.6079   -0.8131 N.2       1 <0>        -0.1361
     21 C16         1.6297    9.8366   -0.5247 C.2       1 <0>        -0.1037
     22 N4          0.4417    9.7878    0.1058 N.pl3     1 <0>        -0.1270
     23 H1         -0.0565   10.5519    0.4359 H         1 <0>         0.2816
     24 N5          0.0746    8.5557    0.1918 N.2       1 <0>        -0.1146
     25 H2         -2.1352    1.6016   -0.2886 H         1 <0>         0.1263
     26 H3         -2.1690    4.0580   -0.2739 H         1 <0>         0.1330
     27 H4          2.0677    4.1221    0.3342 H         1 <0>         0.1666
     28 H5          2.1107    1.6659    0.3321 H         1 <0>         0.1625
     29 H6         -1.9715   -0.2229   -0.2622 H         1 <0>         0.2205
     30 H7         -0.3551   -2.5131    0.5565 H         1 <0>         0.1221
     31 H8         -1.5285   -2.3097   -2.2540 H         1 <0>         0.0793
     32 H9          0.2044   -2.2837   -1.8483 H         1 <0>         0.1026
     33 H10         0.0050   -4.5454   -0.8515 H         1 <0>         0.0867
     34 H11        -0.5103   -4.5504   -2.5552 H         1 <0>         0.0829
     35 H12        -2.1060   -5.8142   -1.1392 H         1 <0>         0.0809
     36 H13        -2.8777   -4.3714   -1.8398 H         1 <0>         0.0805
     37 H14        -1.7043   -4.5748    0.9706 H         1 <0>         0.0861
     38 H15        -3.4372   -4.6007    0.5649 H         1 <0>         0.0814
     39 H16        -2.7225   -2.3340    1.2719 H         1 <0>         0.0851
     40 H17        -3.2378   -2.3390   -0.4319 H         1 <0>         0.0804
     41 H18        -0.8406    6.1085    0.3937 H         1 <0>         0.2457
     42 H19         2.1949   10.7284   -0.7517 H         1 <0>         0.2165
@<TRIPOS>BOND
     1    1    6 ar
     2    1    2 ar
     3    1   25 1
     4    2    3 ar
     5    2   26 1
     6    3    4 ar
     7    3   16 1
     8    4    5 ar
     9    4   27 1
    10    5    6 ar
    11    5   28 1
    12    6    7 1
    13    7    8 2
    14    7    9 am
    15    9   10 1
    16    9   29 1
    17   10   15 1
    18   10   11 1
    19   10   30 1
    20   11   12 1
    21   11   31 1
    22   11   32 1
    23   12   13 1
    24   12   33 1
    25   12   34 1
    26   13   14 1
    27   13   35 1
    28   13   36 1
    29   14   15 1
    30   14   37 1
    31   14   38 1
    32   15   39 1
    33   15   40 1
    34   16   17 am
    35   16   41 1
    36   17   18 2
    37   17   19 1
    38   19   24 2
    39   19   20 1
    40   20   21 2
    41   21   22 1
    42   21   42 1
    43   22   23 1
    44   22   24 1
@<TRIPOS>MOLECULE
ZINC01002240
   40    41     0     0     0
SMALL
USER_CHARGES

@<TRIPOS>ATOM
      1 C1         -4.3935    7.4297    0.0629 C.3       1 <0>        -0.1785
      2 C2         -4.0627    5.9595    0.0529 C.2       1 <0>         0.0278
      3 C3         -2.7473    5.5201    0.0450 C.2       1 <0>        -0.2301
      4 C4         -2.5228    4.1389    0.0365 C.2       1 <0>        -0.1073
      5 S1         -4.1282    3.4857    0.0328 S.3       1 <0>         0.5317
      6 C5         -5.0495    5.0118    0.0517 C.2       1 <0>        -0.4160
      7 C6         -6.5012    5.2034    0.0583 C.2       1 <0>         0.4031
      8 O1         -6.9666    6.3282    0.0660 O.2       1 <0>        -0.3685
      9 N1         -7.3220    4.1345    0.0558 N.am      1 <0>        -0.4259
     10 N2         -1.3195    3.4634    0.0271 N.am      1 <0>        -0.2635
     11 C7         -1.3033    2.1157    0.0197 C.2       1 <0>         0.3520
     12 O2         -2.3488    1.4952    0.0213 O.2       1 <0>        -0.3435
     13 C8         -0.0169    1.3934    0.0097 C.ar      1 <0>        -0.1782
     14 C9          1.1861    2.1049    0.0020 C.ar      1 <0>        -0.0576
     15 C10         2.3845    1.4270   -0.0135 C.ar      1 <0>        -0.2309
     16 C11         2.3990    0.0371   -0.0211 C.ar      1 <0>         0.1306
     17 C12         1.2048   -0.6743   -0.0131 C.ar      1 <0>        -0.1706
     18 C13         0.0021   -0.0041    0.0020 C.ar      1 <0>        -0.0224
     19 O3          3.5822   -0.6273   -0.0360 O.3       1 <0>        -0.2035
     20 C14         4.7712    0.1654   -0.0436 C.3       1 <0>        -0.0660
     21 C15        -1.6298    6.4705    0.0462 C.2       1 <0>         0.3625
     22 O4         -1.1708    6.8706   -1.0064 O.2       1 <0>        -0.3469
     23 O5         -1.1115    6.9003    1.2145 O.3       1 <0>        -0.2617
     24 C16        -0.0072    7.8402    1.1396 C.3       1 <0>        -0.0560
     25 H1         -4.4774    7.7903   -0.9624 H         1 <0>         0.1031
     26 H2         -5.3395    7.5858    0.5814 H         1 <0>         0.1263
     27 H3         -3.6030    7.9766    0.5768 H         1 <0>         0.0776
     28 H4         -6.9512    3.2382    0.0497 H         1 <0>         0.2165
     29 H5         -8.2837    4.2614    0.0602 H         1 <0>         0.2341
     30 H6         -0.4853    3.9584    0.0259 H         1 <0>         0.2510
     31 H7          1.1758    3.1848    0.0076 H         1 <0>         0.1268
     32 H8          3.3146    1.9760   -0.0194 H         1 <0>         0.1426
     33 H9          1.2203   -1.7542   -0.0190 H         1 <0>         0.1543
     34 H10        -0.9253   -0.5575    0.0083 H         1 <0>         0.1625
     35 H11         5.6435   -0.4881   -0.0553 H         1 <0>         0.1149
     36 H12         4.7799    0.7989   -0.9305 H         1 <0>         0.0721
     37 H13         4.7972    0.7900    0.8494 H         1 <0>         0.0713
     38 H14         0.3142    8.1041    2.1471 H         1 <0>         0.1052
     39 H15         0.8231    7.3830    0.6014 H         1 <0>         0.0749
     40 H16        -0.3300    8.7389    0.6141 H         1 <0>         0.0862
@<TRIPOS>BOND
     1    1    2 1
     2    1   25 1
     3    1   26 1
     4    1   27 1
     5    2    6 2
     6    2    3 1
     7    3    4 2
     8    3   21 1
     9    4    5 1
    10    4   10 1
    11    5    6 1
    12    6    7 1
    13    7    8 2
    14    7    9 am
    15    9   28 1
    16    9   29 1
    17   10   11 am
    18   10   30 1
    19   11   12 2
    20   11   13 1
    21   13   18 ar
    22   13   14 ar
    23   14   15 ar
    24   14   31 1
    25   15   16 ar
    26   15   32 1
    27   16   17 ar
    28   16   19 1
    29   17   18 ar
    30   17   33 1
    31   18   34 1
    32   19   20 1
    33   20   35 1
    34   20   36 1
    35   20   37 1
    36   21   22 2
    37   21   23 1
    38   23   24 1
    39   24   38 1
    40   24   39 1
    41   24   40 1
@<TRIPOS>MOLECULE
ZINC01006661
   41    42     0     0     0
SMALL
USER_CHARGES

@<TRIPOS>ATOM
      1 C1          9.7003    1.7140   -5.9258 C.3       1 <0>        -0.2128
      2 C2          9.5929    0.1877   -5.9276 C.3       1 <0>        -0.0117
      3 O1          8.4528   -0.2105   -5.1636 O.3       1 <0>        -0.2302
      4 C3          8.2119   -1.5450   -5.0641 C.ar      1 <0>         0.0581
      5 C4          9.0542   -2.4512   -5.6875 C.ar      1 <0>        -0.2021
      6 C5          8.8082   -3.8077   -5.5851 C.ar      1 <0>        -0.1117
      7 C6          7.7225   -4.2646   -4.8608 C.ar      1 <0>        -0.1448
      8 C7          6.8801   -3.3676   -4.2319 C.ar      1 <0>        -0.1113
      9 C8          7.1175   -2.0045   -4.3345 C.ar      1 <0>         0.0387
     10 N1          6.2628   -1.0933   -3.7017 N.am      1 <0>        -0.3059
     11 C9          5.0228   -1.4745   -3.3363 C.2       1 <0>         0.3468
     12 O2          4.6101   -2.5759   -3.6437 O.2       1 <0>        -0.3507
     13 C10         4.1645   -0.5532   -2.5617 C.ar      1 <0>        -0.1217
     14 C11         4.6360    0.7125   -2.2077 C.ar      1 <0>        -0.0987
     15 C12         3.8327    1.5709   -1.4855 C.ar      1 <0>        -0.1343
     16 C13         2.5586    1.1843   -1.1135 C.ar      1 <0>        -0.1147
     17 C14         2.0816   -0.0754   -1.4561 C.ar      1 <0>         0.0219
     18 C15         2.8810   -0.9453   -2.1823 C.ar      1 <0>        -0.0486
     19 N2          0.7949   -0.4630   -1.0740 N.pl3     1 <0>        -0.8248
     20 S1          0.5896   -1.5581    0.1511 S.o2      1 <0>         2.6779
     21 O3          1.3948   -2.6695   -0.2173 O.2       1 <0>        -0.8949
     22 O4         -0.8186   -1.6956    0.2823 O.2       1 <0>        -0.9052
     23 C16         1.2779   -0.7478    1.6209 C.3       1 <0>        -0.8259
     24 H1          8.8000    2.1421   -6.3665 H         1 <0>         0.0876
     25 H2          9.8075    2.0694   -4.9009 H         1 <0>         0.0848
     26 H3         10.5699    2.0177   -6.5085 H         1 <0>         0.0884
     27 H4         10.4932   -0.2404   -5.4868 H         1 <0>         0.0750
     28 H5          9.4857   -0.1677   -6.9524 H         1 <0>         0.0776
     29 H6          9.9035   -2.0977   -6.2534 H         1 <0>         0.1349
     30 H7          9.4660   -4.5126   -6.0718 H         1 <0>         0.1293
     31 H8          7.5345   -5.3253   -4.7833 H         1 <0>         0.1358
     32 H9          6.0351   -3.7274   -3.6637 H         1 <0>         0.1874
     33 H10         6.5633   -0.1878   -3.5265 H         1 <0>         0.2416
     34 H11         5.6294    1.0198   -2.4997 H         1 <0>         0.1328
     35 H12         4.1992    2.5496   -1.2131 H         1 <0>         0.1384
     36 H13         1.9331    1.8620   -0.5514 H         1 <0>         0.1368
     37 H14         2.5110   -1.9232   -2.4529 H         1 <0>         0.1846
     38 H15         0.0218   -0.0906   -1.5263 H         1 <0>         0.2564
     39 H16         2.3097   -0.4559    1.4252 H         1 <0>         0.1375
     40 H17         0.6883    0.1380    1.8571 H         1 <0>         0.1343
     41 H18         1.2493   -1.4386    2.4635 H         1 <0>         0.1433
@<TRIPOS>BOND
     1    1    2 1
     2    1   24 1
     3    1   25 1
     4    1   26 1
     5    2    3 1
     6    2   27 1
     7    2   28 1
     8    3    4 1
     9    4    9 ar
    10    4    5 ar
    11    5    6 ar
    12    5   29 1
    13    6    7 ar
    14    6   30 1
    15    7    8 ar
    16    7   31 1
    17    8    9 ar
    18    8   32 1
    19    9   10 1
    20   10   11 am
    21   10   33 1
    22   11   12 2
    23   11   13 1
    24   13   18 ar
    25   13   14 ar
    26   14   15 ar
    27   14   34 1
    28   15   16 ar
    29   15   35 1
    30   16   17 ar
    31   16   36 1
    32   17   18 ar
    33   17   19 1
    34   18   37 1
    35   19   20 1
    36   19   38 1
    37   20   21 2
    38   20   22 2
    39   20   23 1
    40   23   39 1
    41   23   40 1
    42   23   41 1
@<TRIPOS>MOLECULE
ZINC01009031
   37    38     0     0     0
SMALL
USER_CHARGES

@<TRIPOS>ATOM
      1 C1         -1.2979    8.2222    6.0777 C.3       1 <0>        -0.1327
      2 C2         -2.4253    7.2706    5.7702 C.2       1 <0>        -0.2557
      3 C3         -3.3894    6.7962    6.6000 C.2       1 <0>        -0.1880
      4 C4         -4.3341    5.9246    6.1066 C.2       1 <0>        -0.1415
      5 C5         -4.2625    5.5640    4.7732 C.2       1 <0>        -0.2530
      6 S1         -2.8275    6.4735    4.2245 S.3       1 <0>         0.4012
      7 C6         -5.1349    4.6633    4.0099 C.2       1 <0>        -0.0493
      8 N1         -4.9027    4.4474    2.7495 N.2       1 <0>        -0.0080
      9 N2         -5.7354    3.5879    2.0210 N.pl3     1 <0>        -0.8069
     10 S2         -5.4396    3.3128    0.4150 S.o2      1 <0>         2.7821
     11 O1         -5.3789    4.5871   -0.2108 O.2       1 <0>        -0.8924
     12 O2         -6.3503    2.3034    0.0014 O.2       1 <0>        -0.9146
     13 C7         -3.8260    2.6152    0.2946 C.ar      1 <0>        -0.7739
     14 C8         -3.6616    1.2433    0.3495 C.ar      1 <0>        -0.0109
     15 C9         -2.3982    0.6934    0.2545 C.ar      1 <0>        -0.1908
     16 C10        -1.2924    1.5198    0.1040 C.ar      1 <0>         0.1202
     17 C11        -1.4603    2.8975    0.0554 C.ar      1 <0>        -0.1549
     18 C12        -2.7269    3.4409    0.1448 C.ar      1 <0>         0.0047
     19 N3         -0.0111    0.9658    0.0074 N.am      1 <0>        -0.3341
     20 C13         0.9244    1.5611   -0.7587 C.2       1 <0>         0.3004
     21 O3          0.6309    2.5232   -1.4364 O.2       1 <0>        -0.3424
     22 C14         2.3352    1.0313   -0.7733 C.3       1 <0>        -0.2411
     23 H1         -0.4228    7.6571    6.3985 H         1 <0>         0.0930
     24 H2         -1.0524    8.7956    5.1838 H         1 <0>         0.0912
     25 H3         -1.6030    8.9021    6.8731 H         1 <0>         0.0937
     26 H4         -3.4152    7.0996    7.6362 H         1 <0>         0.1441
     27 H5         -5.1116    5.5320    6.7450 H         1 <0>         0.1423
     28 H6         -5.9697    4.1801    4.4957 H         1 <0>         0.1334
     29 H7         -6.4852    3.1539    2.4574 H         1 <0>         0.2248
     30 H8         -4.5220    0.6012    0.4665 H         1 <0>         0.1479
     31 H9         -2.2705   -0.3782    0.2967 H         1 <0>         0.1342
     32 H10        -0.6018    3.5431   -0.0568 H         1 <0>         0.1657
     33 H11        -2.8586    4.5119    0.1022 H         1 <0>         0.1611
     34 H12         0.2026    0.1512    0.4885 H         1 <0>         0.2346
     35 H13         2.3314   -0.0027   -1.1181 H         1 <0>         0.0969
     36 H14         2.9436    1.6363   -1.4456 H         1 <0>         0.1217
     37 H15         2.7509    1.0771    0.2332 H         1 <0>         0.0973
@<TRIPOS>BOND
     1    1    2 1
     2    1   23 1
     3    1   24 1
     4    1   25 1
     5    2    6 1
     6    2    3 2
     7    3    4 1
     8    3   26 1
     9    4    5 2
    10    4   27 1
    11    5    6 1
    12    5    7 1
    13    7    8 2
    14    7   28 1
    15    8    9 1
    16    9   10 1
    17    9   29 1
    18   10   11 2
    19   10   12 2
    20   10   13 1
    21   13   18 ar
    22   13   14 ar
    23   14   15 ar
    24   14   30 1
    25   15   16 ar
    26   15   31 1
    27   16   17 ar
    28   16   19 1
    29   17   18 ar
    30   17   32 1
    31   18   33 1
    32   19   20 am
    33   19   34 1
    34   20   21 2
    35   20   22 1
    36   22   35 1
    37   22   36 1
    38   22   37 1
@<TRIPOS>MOLECULE
ZINC01009042
   40    41     0     0     0
SMALL
USER_CHARGES

@<TRIPOS>ATOM
      1 C1         -0.0697    7.4288    6.5282 C.3       1 <0>        -0.2089
      2 C2         -1.2982    8.2219    6.0780 C.3       1 <0>        -0.0833
      3 C3         -2.4255    7.2702    5.7705 C.2       1 <0>        -0.2528
      4 C4         -3.3895    6.7956    6.6004 C.2       1 <0>        -0.1867
      5 C5         -4.3341    5.9240    6.1071 C.2       1 <0>        -0.1421
      6 C6         -4.2626    5.5634    4.7736 C.2       1 <0>        -0.2533
      7 S1         -2.8277    6.4731    4.2249 S.3       1 <0>         0.4018
      8 C7         -5.1350    4.6627    4.0104 C.2       1 <0>        -0.0492
      9 N1         -4.9029    4.4468    2.7499 N.2       1 <0>        -0.0081
     10 N2         -5.7355    3.5872    2.0215 N.pl3     1 <0>        -0.8069
     11 S2         -5.4398    3.3122    0.4155 S.o2      1 <0>         2.7823
     12 O1         -5.3793    4.5865   -0.2103 O.2       1 <0>        -0.8924
     13 O2         -6.3504    2.3028    0.0019 O.2       1 <0>        -0.9147
     14 C8         -3.8262    2.6148    0.2949 C.ar      1 <0>        -0.7739
     15 C9         -3.6616    1.2429    0.3498 C.ar      1 <0>        -0.0109
     16 C10        -2.3982    0.6931    0.2546 C.ar      1 <0>        -0.1908
     17 C11        -1.2924    1.5197    0.1041 C.ar      1 <0>         0.1199
     18 C12        -1.4605    2.8973    0.0555 C.ar      1 <0>        -0.1548
     19 C13        -2.7271    3.4406    0.1451 C.ar      1 <0>         0.0047
     20 N3         -0.0111    0.9658    0.0074 N.am      1 <0>        -0.3337
     21 C14         0.9243    1.5612   -0.7588 C.2       1 <0>         0.3005
     22 O3          0.6307    2.5233   -1.4364 O.2       1 <0>        -0.3432
     23 C15         2.3351    1.0316   -0.7735 C.3       1 <0>        -0.2390
     24 H1          0.7457    8.1172    6.7506 H         1 <0>         0.0782
     25 H2         -0.3150    6.8553    7.4221 H         1 <0>         0.0798
     26 H3          0.2355    6.7489    5.7328 H         1 <0>         0.0809
     27 H4         -1.0528    8.7953    5.1841 H         1 <0>         0.0962
     28 H5         -1.6034    8.9017    6.8734 H         1 <0>         0.0987
     29 H6         -3.4149    7.0984    7.6368 H         1 <0>         0.1441
     30 H7         -5.1116    5.5312    6.7455 H         1 <0>         0.1421
     31 H8         -5.9697    4.1794    4.4963 H         1 <0>         0.1333
     32 H9         -6.4852    3.1531    2.4579 H         1 <0>         0.2247
     33 H10        -4.5219    0.6007    0.4669 H         1 <0>         0.1479
     34 H11        -2.2704   -0.3784    0.2969 H         1 <0>         0.1342
     35 H12        -0.6020    3.5430   -0.0567 H         1 <0>         0.1657
     36 H13        -2.8590    4.5116    0.1025 H         1 <0>         0.1611
     37 H14         0.2028    0.1512    0.4885 H         1 <0>         0.2347
     38 H15         2.4331    0.2804   -1.5572 H         1 <0>         0.1089
     39 H16         3.0285    1.8502   -0.9661 H         1 <0>         0.1202
     40 H17         2.5641    0.5810    0.1923 H         1 <0>         0.0849
@<TRIPOS>BOND
     1    1    2 1
     2    1   24 1
     3    1   25 1
     4    1   26 1
     5    2    3 1
     6    2   27 1
     7    2   28 1
     8    3    7 1
     9    3    4 2
    10    4    5 1
    11    4   29 1
    12    5    6 2
    13    5   30 1
    14    6    7 1
    15    6    8 1
    16    8    9 2
    17    8   31 1
    18    9   10 1
    19   10   11 1
    20   10   32 1
    21   11   12 2
    22   11   13 2
    23   11   14 1
    24   14   19 ar
    25   14   15 ar
    26   15   16 ar
    27   15   33 1
    28   16   17 ar
    29   16   34 1
    30   17   18 ar
    31   17   20 1
    32   18   19 ar
    33   18   35 1
    34   19   36 1
    35   20   21 am
    36   20   37 1
    37   21   22 2
    38   21   23 1
    39   23   38 1
    40   23   39 1
    41   23   40 1
@<TRIPOS>MOLECULE
ZINC01013829
   49    51     0     0     0
SMALL
USER_CHARGES

@<TRIPOS>ATOM
      1 C1          0.6941    7.0907   -2.0990 C.3       1 <0>        -0.2049
      2 C2          1.6808    6.1279   -1.4354 C.3       1 <0>        -0.1371
      3 C3          3.0811    6.7442   -1.4474 C.3       1 <0>        -0.2062
      4 C4          1.2490    5.8710    0.0098 C.3       1 <0>        -0.0215
      5 N1         -0.0388    5.1726    0.0179 N.am      1 <0>        -0.2414
      6 C5         -0.0549    3.7931    0.0049 C.ar      1 <0>         0.1310
      7 C6          1.1400    3.0783   -0.0156 C.ar      1 <0>        -0.1929
      8 C7          1.1161    1.7007   -0.0281 C.ar      1 <0>        -0.0639
      9 C8         -0.0899    1.0136   -0.0204 C.ar      1 <0>        -0.1756
     10 C9         -1.2746    1.6931   -0.0055 C.ar      1 <0>        -0.0471
     11 C10        -1.2741    3.0927    0.0126 C.ar      1 <0>        -0.1270
     12 C11        -2.5363    3.8391    0.0338 C.2       1 <0>         0.2095
     13 C12        -2.4795    5.2350    0.0469 C.2       1 <0>        -0.3424
     14 C13        -1.1733    5.8925    0.0382 C.2       1 <0>         0.3727
     15 O1         -1.1128    7.1091    0.0491 O.2       1 <0>        -0.3481
     16 C14        -3.7130    6.0300    0.0696 C.2       1 <0>         0.3656
     17 O2         -4.0891    6.5983   -0.9384 O.2       1 <0>        -0.3347
     18 N2         -4.4291    6.1306    1.2070 N.am      1 <0>        -0.3126
     19 C15        -5.6569    6.7861    1.2007 C.ar      1 <0>         0.1337
     20 C16        -6.3944    6.8753    0.0273 C.ar      1 <0>        -0.1593
     21 C17        -7.6138    7.5216    0.0244 C.ar      1 <0>        -0.0796
     22 C18        -8.1067    8.0945    1.1859 C.ar      1 <0>        -0.1629
     23 C19        -7.3865    8.0205    2.3583 C.ar      1 <0>        -0.0820
     24 C20        -6.1530    7.3651    2.3783 C.ar      1 <0>        -0.1791
     25 C21        -5.3768    7.2827    3.6298 C.2       1 <0>         0.3626
     26 O3         -4.2620    6.7972    3.6229 O.2       1 <0>        -0.3910
     27 N3         -5.9031    7.7454    4.7810 N.am      1 <0>        -0.4230
     28 O4         -3.7217    3.1944    0.0403 O.3       1 <0>        -0.2486
     29 H1          1.0017    7.2737   -3.1285 H         1 <0>         0.0689
     30 H2         -0.3035    6.6515   -2.0904 H         1 <0>         0.0893
     31 H3          0.6812    8.0326   -1.5507 H         1 <0>         0.0925
     32 H4          1.6938    5.1859   -1.9836 H         1 <0>         0.0912
     33 H5          3.7841    6.0583   -0.9746 H         1 <0>         0.0659
     34 H6          3.3887    6.9273   -2.4769 H         1 <0>         0.0817
     35 H7          3.0682    7.6862   -0.8991 H         1 <0>         0.0801
     36 H8          1.1502    6.8216    0.5339 H         1 <0>         0.1292
     37 H9          1.9985    5.2570    0.5092 H         1 <0>         0.0921
     38 H10         2.0840    3.6029   -0.0214 H         1 <0>         0.1474
     39 H11         2.0450    1.1500   -0.0443 H         1 <0>         0.1359
     40 H12        -0.0916   -0.0664   -0.0307 H         1 <0>         0.1374
     41 H13        -2.2092    1.1519   -0.0037 H         1 <0>         0.1506
     42 H14        -4.0887    5.7462    2.0300 H         1 <0>         0.2722
     43 H15        -6.0150    6.4352   -0.8831 H         1 <0>         0.1738
     44 H16        -8.1854    7.5851   -0.8897 H         1 <0>         0.1367
     45 H17        -9.0599    8.6019    1.1721 H         1 <0>         0.1326
     46 H18        -7.7750    8.4691    3.2607 H         1 <0>         0.1245
     47 H19        -6.7924    8.1327    4.7865 H         1 <0>         0.2186
     48 H20        -5.3926    7.6912    5.6040 H         1 <0>         0.2322
     49 H21        -4.4884    3.7803   -0.0228 H         1 <0>         0.2530
@<TRIPOS>BOND
     1    1    2 1
     2    1   29 1
     3    1   30 1
     4    1   31 1
     5    2    3 1
     6    2    4 1
     7    2   32 1
     8    3   33 1
     9    3   34 1
    10    3   35 1
    11    4    5 1
    12    4   36 1
    13    4   37 1
    14    5   14 am
    15    5    6 1
    16    6   11 ar
    17    6    7 ar
    18    7    8 ar
    19    7   38 1
    20    8    9 ar
    21    8   39 1
    22    9   10 ar
    23    9   40 1
    24   10   11 ar
    25   10   41 1
    26   11   12 1
    27   12   13 2
    28   12   28 1
    29   13   14 1
    30   13   16 1
    31   14   15 2
    32   16   17 2
    33   16   18 am
    34   18   19 1
    35   18   42 1
    36   19   24 ar
    37   19   20 ar
    38   20   21 ar
    39   20   43 1
    40   21   22 ar
    41   21   44 1
    42   22   23 ar
    43   22   45 1
    44   23   24 ar
    45   23   46 1
    46   24   25 1
    47   25   26 2
    48   25   27 am
    49   27   47 1
    50   27   48 1
    51   28   49 1
@<TRIPOS>MOLECULE
ZINC01019119
   45    48     0     0     0
SMALL
USER_CHARGES

@<TRIPOS>ATOM
      1 C1         -1.2498    3.1366    0.0309 C.ar      1 <0>        -0.1579
      2 C2         -1.2157    1.7489    0.0173 C.ar      1 <0>        -0.0646
      3 C3         -0.0126    1.0758    0.0080 C.ar      1 <0>        -0.1510
      4 C4          1.1822    1.7876    0.0004 C.ar      1 <0>         0.1393
      5 C5          1.1452    3.1935    0.0083 C.ar      1 <0>        -0.1637
      6 C6         -0.0909    3.8575    0.0237 C.ar      1 <0>        -0.0617
      7 C7          2.3532    3.9357    0.0003 C.2       1 <0>         0.0036
      8 C8          3.5553    3.2492   -0.0154 C.2       1 <0>        -0.2418
      9 C9          3.5315    1.7819   -0.0230 C.2       1 <0>         0.3605
     10 O1          4.5760    1.1580   -0.0364 O.2       1 <0>        -0.2429
     11 O2          2.3592    1.1260   -0.0149 O.3       1 <0>        -0.1625
     12 C10         4.8344    3.9780   -0.0237 C.2       1 <0>         0.3483
     13 O3          5.8842    3.3638   -0.0375 O.2       1 <0>        -0.2954
     14 N1          4.8422    5.3257   -0.0161 N.am      1 <0>        -0.2728
     15 C11         6.0458    6.0115   -0.0239 C.2       1 <0>        -0.1394
     16 C12         6.2571    7.3817   -0.0239 C.2       1 <0>        -0.2455
     17 C13         7.6348    7.8548   -0.0264 C.2       1 <0>        -0.0629
     18 C14         8.5707    6.8817   -0.0456 C.2       1 <0>        -0.3260
     19 S1          7.6527    5.3659   -0.0439 S.3       1 <0>         0.5219
     20 C15        10.0584    7.0435   -0.0774 C.3       1 <0>        -0.0768
     21 C16        10.4821    8.0483    1.0023 C.3       1 <0>        -0.1565
     22 C17        10.4640    9.4468    0.3930 C.3       1 <0>        -0.1606
     23 C18         9.3566    9.5499   -0.6538 C.3       1 <0>        -0.1655
     24 C19         7.9921    9.3358   -0.0080 C.3       1 <0>        -0.0994
     25 C20         5.1325    8.3221   -0.0175 C.2       1 <0>         0.3608
     26 O4          4.6712    8.7120    1.0392 O.2       1 <0>        -0.3633
     27 N2          4.6095    8.7550   -1.1818 N.am      1 <0>        -0.4315
     28 H1         -2.2002    3.6494    0.0428 H         1 <0>         0.1420
     29 H2         -2.1405    1.1911    0.0183 H         1 <0>         0.1448
     30 H3          0.0021   -0.0041    0.0020 H         1 <0>         0.1586
     31 H4         -0.1251    4.9369    0.0303 H         1 <0>         0.1408
     32 H5          2.3359    5.0156    0.0059 H         1 <0>         0.1424
     33 H6          4.0050    5.8155   -0.0051 H         1 <0>         0.2411
     34 H7         10.5333    6.0813    0.1144 H         1 <0>         0.0894
     35 H8         10.3635    7.4116   -1.0570 H         1 <0>         0.1003
     36 H9          9.7851    8.0035    1.8391 H         1 <0>         0.0963
     37 H10        11.4882    7.8121    1.3489 H         1 <0>         0.0833
     38 H11        10.2877   10.1811    1.1790 H         1 <0>         0.0832
     39 H12        11.4262    9.6483   -0.0778 H         1 <0>         0.0783
     40 H13         9.3866   10.5374   -1.1141 H         1 <0>         0.0797
     41 H14         9.5148    8.7925   -1.4216 H         1 <0>         0.0926
     42 H15         8.0204    9.6885    1.0230 H         1 <0>         0.1039
     43 H16         7.2380    9.8955   -0.5614 H         1 <0>         0.0858
     44 H17         4.9771    8.4443   -2.0239 H         1 <0>         0.2203
     45 H18         3.8654    9.3772   -1.1776 H         1 <0>         0.2244
@<TRIPOS>BOND
     1    1    6 ar
     2    1    2 ar
     3    1   28 1
     4    2    3 ar
     5    2   29 1
     6    3    4 ar
     7    3   30 1
     8    4   11 1
     9    4    5 ar
    10    5    6 ar
    11    5    7 1
    12    6   31 1
    13    7    8 2
    14    7   32 1
    15    8    9 1
    16    8   12 1
    17    9   10 2
    18    9   11 1
    19   12   13 2
    20   12   14 am
    21   14   15 1
    22   14   33 1
    23   15   19 1
    24   15   16 2
    25   16   17 1
    26   16   25 1
    27   17   24 1
    28   17   18 2
    29   18   19 1
    30   18   20 1
    31   20   21 1
    32   20   34 1
    33   20   35 1
    34   21   22 1
    35   21   36 1
    36   21   37 1
    37   22   23 1
    38   22   38 1
    39   22   39 1
    40   23   24 1
    41   23   40 1
    42   23   41 1
    43   24   42 1
    44   24   43 1
    45   25   26 2
    46   25   27 am
    47   27   44 1
    48   27   45 1
@<TRIPOS>MOLECULE
ZINC01020411
   43    45     0     0     0
SMALL
USER_CHARGES

@<TRIPOS>ATOM
      1 C1          1.1541    8.9357    8.2153 C.3       1 <0>        -0.1710
      2 C2          1.1591    7.8542    7.1659 C.ar      1 <0>        -0.0985
      3 C3          1.1813    6.5203    7.5505 C.ar      1 <0>        -0.0933
      4 C4          1.1862    5.5154    6.6077 C.ar      1 <0>        -0.1210
      5 C5          1.1688    5.8355    5.2549 C.ar      1 <0>         0.0404
      6 C6          1.1468    7.1891    4.8707 C.ar      1 <0>        -0.1273
      7 C7          1.1422    8.1929    5.8424 C.ar      1 <0>        -0.0682
      8 C8          1.1332    7.1858    3.4083 C.2       1 <0>        -0.0618
      9 C9          1.1475    5.8802    3.0349 C.2       1 <0>        -0.0870
     10 O1          1.1626    5.0929    4.1309 O.3       1 <0>        -0.0847
     11 C10         1.1412    5.3973    1.6467 C.2       1 <0>         0.3903
     12 O2          1.1218    6.1925    0.7262 O.2       1 <0>        -0.3596
     13 N1          1.1568    4.0736    1.3936 N.am      1 <0>        -0.3792
     14 C11         1.1505    3.5924    0.0099 C.3       1 <0>         0.0285
     15 C12         1.1709    2.0855    0.0021 C.ar      1 <0>        -0.0545
     16 C13        -0.0167    1.3781    0.0096 C.ar      1 <0>        -0.1357
     17 C14         0.0021   -0.0041    0.0020 C.ar      1 <0>        -0.0282
     18 C15         1.2084   -0.6789   -0.0132 C.ar      1 <0>        -0.7554
     19 C16         2.3961    0.0285   -0.0212 C.ar      1 <0>        -0.0283
     20 C17         2.3773    1.4107   -0.0145 C.ar      1 <0>        -0.1358
     21 S1          1.2323   -2.4407   -0.0217 S.o2      1 <0>         2.7613
     22 O3          2.4885   -2.8324    0.5148 O.2       1 <0>        -0.9147
     23 O4         -0.0018   -2.8663    0.5395 O.2       1 <0>        -0.9147
     24 N2          1.2232   -2.9228   -1.6059 N.pl3     1 <0>        -0.9307
     25 C18         1.1079    8.3879    2.4997 C.3       1 <0>        -0.1565
     26 H1          0.1254    9.1825    8.4779 H         1 <0>         0.0868
     27 H2          1.6811    8.5838    9.1022 H         1 <0>         0.0821
     28 H3          1.6523    9.8231    7.8248 H         1 <0>         0.0827
     29 H4          1.1945    6.2676    8.6004 H         1 <0>         0.1391
     30 H5          1.2032    4.4814    6.9190 H         1 <0>         0.1412
     31 H6          1.1249    9.2320    5.5487 H         1 <0>         0.1370
     32 H7          1.1723    3.4396    2.1276 H         1 <0>         0.2398
     33 H8          2.0306    3.9704   -0.5103 H         1 <0>         0.1040
     34 H9          0.2509    3.9462   -0.4937 H         1 <0>         0.1042
     35 H10        -0.9592    1.9054    0.0170 H         1 <0>         0.1445
     36 H11        -0.9258   -0.5567    0.0083 H         1 <0>         0.1565
     37 H12         3.3386   -0.4987   -0.0324 H         1 <0>         0.1565
     38 H13         3.3052    1.9634   -0.0205 H         1 <0>         0.1444
     39 H14         1.2072   -2.2605   -2.3144 H         1 <0>         0.2302
     40 H15         1.2339   -3.8676   -1.8254 H         1 <0>         0.2451
     41 H16         0.0743    8.6633    2.2902 H         1 <0>         0.0946
     42 H17         1.6147    9.2215    2.9858 H         1 <0>         0.0797
     43 H18         1.6165    8.1482    1.5659 H         1 <0>         0.1175
@<TRIPOS>BOND
     1    1    2 1
     2    1   26 1
     3    1   27 1
     4    1   28 1
     5    2    7 ar
     6    2    3 ar
     7    3    4 ar
     8    3   29 1
     9    4    5 ar
    10    4   30 1
    11    5   10 1
    12    5    6 ar
    13    6    7 ar
    14    6    8 1
    15    7   31 1
    16    8    9 2
    17    8   25 1
    18    9   10 1
    19    9   11 1
    20   11   12 2
    21   11   13 am
    22   13   14 1
    23   13   32 1
    24   14   15 1
    25   14   33 1
    26   14   34 1
    27   15   20 ar
    28   15   16 ar
    29   16   17 ar
    30   16   35 1
    31   17   18 ar
    32   17   36 1
    33   18   19 ar
    34   18   21 1
    35   19   20 ar
    36   19   37 1
    37   20   38 1
    38   21   22 2
    39   21   23 2
    40   21   24 1
    41   24   39 1
    42   24   40 1
    43   25   41 1
    44   25   42 1
    45   25   43 1
@<TRIPOS>MOLECULE
ZINC01021169
   42    44     0     0     0
SMALL
USER_CHARGES

@<TRIPOS>ATOM
      1 C1         -2.5998   -0.0361    2.4716 C.3       1 <0>        -0.2376
      2 C2         -3.0620    0.3451    1.0888 C.2       1 <0>         0.3089
      3 O1         -4.0606    1.0189    0.9474 O.2       1 <0>        -0.3348
      4 N1         -2.3658   -0.0627    0.0093 N.am      1 <0>        -0.3116
      5 C3         -2.8770    0.2072   -1.3368 C.3       1 <0>         0.1408
      6 N2         -3.8124   -0.8513   -1.7253 N.am      1 <0>        -0.3379
      7 C4         -5.1367   -0.8195   -1.4925 C.2       1 <0>         0.3532
      8 O2         -5.7364    0.0776   -0.9342 O.2       1 <0>        -0.2695
      9 C5         -5.7399   -2.0548   -2.0267 C.ar      1 <0>        -0.1957
     10 C6         -7.0328   -2.5587   -2.0731 C.ar      1 <0>        -0.0098
     11 C7         -7.2719   -3.7856   -2.6627 C.ar      1 <0>        -0.2073
     12 C8         -6.2250   -4.5195   -3.2093 C.ar      1 <0>         0.1346
     13 C9         -4.9214   -4.0233   -3.1686 C.ar      1 <0>        -0.1439
     14 C10        -4.6747   -2.7964   -2.5809 C.ar      1 <0>        -0.0886
     15 C11        -3.4603   -1.9801   -2.3669 C.2       1 <0>         0.3566
     16 O3         -2.3346   -2.2795   -2.7103 O.2       1 <0>        -0.3095
     17 N3         -6.4782   -5.7529   -3.7994 N.pl3     1 <0>        -0.4076
     18 C12        -1.1530   -0.7448    0.1744 C.ar      1 <0>         0.0079
     19 C13        -1.1404   -2.1290    0.2659 C.ar      1 <0>        -0.0788
     20 C14         0.0564   -2.7992    0.4344 C.ar      1 <0>        -0.1594
     21 C15         1.2435   -2.0937    0.5069 C.ar      1 <0>        -0.0826
     22 C16         1.2394   -0.7146    0.4112 C.ar      1 <0>        -0.2185
     23 C17         0.0438   -0.0352    0.2422 C.ar      1 <0>         0.0958
     24 O4          0.0380    1.3213    0.1484 O.3       1 <0>        -0.2043
     25 C18         1.3019    1.9827    0.2323 C.3       1 <0>        -0.0651
     26 H1         -1.9881    0.7662    2.8843 H         1 <0>         0.1066
     27 H2         -3.4664   -0.1987    3.1124 H         1 <0>         0.1101
     28 H3         -2.0105   -0.9515    2.4182 H         1 <0>         0.0901
     29 H4         -3.3920    1.1678   -1.3441 H         1 <0>         0.1463
     30 H5         -2.0464    0.2349   -2.0421 H         1 <0>         0.1243
     31 H6         -7.8497   -1.9933   -1.6495 H         1 <0>         0.1501
     32 H7         -8.2779   -4.1769   -2.6987 H         1 <0>         0.1387
     33 H8         -4.1094   -4.5947   -3.5937 H         1 <0>         0.1470
     34 H9         -5.7495   -6.2664   -4.1816 H         1 <0>         0.2251
     35 H10        -7.3836   -6.0998   -3.8287 H         1 <0>         0.2254
     36 H11        -2.0661   -2.6825    0.2096 H         1 <0>         0.1443
     37 H12         0.0645   -3.8765    0.5100 H         1 <0>         0.1359
     38 H13         2.1764   -2.6216    0.6390 H         1 <0>         0.1325
     39 H14         2.1683   -0.1667    0.4686 H         1 <0>         0.1387
     40 H15         1.7669    1.7575    1.1921 H         1 <0>         0.0681
     41 H16         1.9477    1.6361   -0.5745 H         1 <0>         0.0696
     42 H17         1.1553    3.0591    0.1433 H         1 <0>         0.1119
@<TRIPOS>BOND
     1    1    2 1
     2    1   26 1
     3    1   27 1
     4    1   28 1
     5    2    3 2
     6    2    4 am
     7    4    5 1
     8    4   18 1
     9    5    6 1
    10    5   29 1
    11    5   30 1
    12    6   15 am
    13    6    7 am
    14    7    8 2
    15    7    9 1
    16    9   14 ar
    17    9   10 ar
    18   10   11 ar
    19   10   31 1
    20   11   12 ar
    21   11   32 1
    22   12   13 ar
    23   12   17 1
    24   13   14 ar
    25   13   33 1
    26   14   15 1
    27   15   16 2
    28   17   34 1
    29   17   35 1
    30   18   23 ar
    31   18   19 ar
    32   19   20 ar
    33   19   36 1
    34   20   21 ar
    35   20   37 1
    36   21   22 ar
    37   21   38 1
    38   22   23 ar
    39   22   39 1
    40   23   24 1
    41   24   25 1
    42   25   40 1
    43   25   41 1
    44   25   42 1
@<TRIPOS>MOLECULE
ZINC01021233
   40    42     0     0     0
SMALL
USER_CHARGES

@<TRIPOS>ATOM
      1 C1         -5.3310   12.0247    1.0731 C.3       1 <0>        -0.1792
      2 C2         -4.1444   12.5581    0.3125 C.ar      1 <0>        -0.0276
      3 C3         -4.0918   13.8897   -0.0380 C.ar      1 <0>        -0.1732
      4 C4         -2.9996   14.3858   -0.7393 C.ar      1 <0>         0.1046
      5 C5         -1.9540   13.5445   -1.0918 C.ar      1 <0>        -0.1973
      6 C6         -1.9923   12.2070   -0.7402 C.ar      1 <0>         0.1317
      7 C7         -3.0966   11.7029   -0.0373 C.ar      1 <0>        -0.0902
      8 C8         -3.1483   10.2788    0.3357 C.2       1 <0>        -0.1114
      9 N1         -2.1731    9.4864    0.0093 N.2       1 <0>         0.0285
     10 N2         -2.2223    8.1319    0.3641 N.am      1 <0>        -0.3374
     11 C9         -1.2100    7.3093    0.0252 C.2       1 <0>         0.3168
     12 O1         -0.2560    7.7417   -0.5871 O.2       1 <0>        -0.2766
     13 C10        -1.2629    5.8524    0.4069 C.3       1 <0>        -0.0240
     14 H1         -1.4017    5.7589    1.4839 H         1 <0>         0.1165
     15 C11        -2.4244    5.1674   -0.3260 C.3       1 <0>        -0.0433
     16 O2         -2.4371    3.7853    0.0479 O.3       1 <0>        -0.2034
     17 C12        -1.2410    3.1361    0.0299 C.ar      1 <0>         0.0103
     18 C13        -1.2193    1.7493    0.0173 C.ar      1 <0>        -0.1204
     19 C14        -0.0126    1.0758    0.0080 C.ar      1 <0>        -0.1290
     20 C15         1.1759    1.7821    0.0004 C.ar      1 <0>        -0.1268
     21 C16         1.1613    3.1640    0.0067 C.ar      1 <0>        -0.1161
     22 C17        -0.0464    3.8461    0.0203 C.ar      1 <0>         0.0197
     23 O3         -0.0451    5.2072    0.0190 O.3       1 <0>        -0.1689
     24 O4         -0.9670   11.3837   -1.0792 O.3       1 <0>        -0.2645
     25 O5         -2.9555   15.6997   -1.0815 O.3       1 <0>        -0.2913
     26 H2         -5.1453   12.1114    2.1436 H         1 <0>         0.0919
     27 H3         -6.2191   12.5998    0.8107 H         1 <0>         0.0897
     28 H4         -5.4871   10.9773    0.8150 H         1 <0>         0.0808
     29 H5         -4.9024   14.5500    0.2330 H         1 <0>         0.1447
     30 H6         -1.1073   13.9351   -1.6369 H         1 <0>         0.1553
     31 H7         -3.9975    9.8939    0.8808 H         1 <0>         0.1183
     32 H8         -2.9851    7.7862    0.8536 H         1 <0>         0.2026
     33 H9         -2.2826    5.2555   -1.4031 H         1 <0>         0.1083
     34 H10        -3.3669    5.6343   -0.0399 H         1 <0>         0.1152
     35 H11        -2.1463    1.1952    0.0194 H         1 <0>         0.1445
     36 H12         0.0021   -0.0041    0.0020 H         1 <0>         0.1360
     37 H13         2.1174    1.2531   -0.0101 H         1 <0>         0.1371
     38 H14         2.0911    3.7134    0.0014 H         1 <0>         0.1507
     39 H15        -1.0718   10.9596   -1.9419 H         1 <0>         0.2440
     40 H16        -2.5371   16.2651   -0.4179 H         1 <0>         0.2335
@<TRIPOS>BOND
     1    1    2 1
     2    1   26 1
     3    1   27 1
     4    1   28 1
     5    2    7 ar
     6    2    3 ar
     7    3    4 ar
     8    3   29 1
     9    4    5 ar
    10    4   25 1
    11    5    6 ar
    12    5   30 1
    13    6    7 ar
    14    6   24 1
    15    7    8 1
    16    8    9 2
    17    8   31 1
    18    9   10 1
    19   10   11 am
    20   10   32 1
    21   11   12 2
    22   11   13 1
    23   13   14 1
    24   13   23 1
    25   13   15 1
    26   15   16 1
    27   15   33 1
    28   15   34 1
    29   16   17 1
    30   17   22 ar
    31   17   18 ar
    32   18   19 ar
    33   18   35 1
    34   19   20 ar
    35   19   36 1
    36   20   21 ar
    37   20   37 1
    38   21   22 ar
    39   21   38 1
    40   22   23 1
    41   24   39 1
    42   25   40 1
@<TRIPOS>MOLECULE
ZINC01021235
   40    42     0     0     0
SMALL
USER_CHARGES

@<TRIPOS>ATOM
      1 C1          4.7317    5.7162   -0.0114 C.3       1 <0>        -0.1793
      2 C2          3.4145    6.4483    0.0041 C.ar      1 <0>        -0.0277
      3 C3          3.3914    7.8261    0.0112 C.ar      1 <0>        -0.1732
      4 C4          2.1792    8.5053    0.0255 C.ar      1 <0>         0.1045
      5 C5          0.9833    7.8016    0.0336 C.ar      1 <0>        -0.1972
      6 C6          0.9935    6.4182    0.0212 C.ar      1 <0>         0.1316
      7 C7          2.2160    5.7306    0.0117 C.ar      1 <0>        -0.0901
      8 C8          2.2360    4.2577    0.0036 C.2       1 <0>        -0.1115
      9 N1          1.1205    3.5933    0.0107 N.2       1 <0>         0.0284
     10 N2          1.1395    2.1925    0.0030 N.am      1 <0>        -0.3373
     11 C9         -0.0184    1.5028    0.0103 C.2       1 <0>         0.3166
     12 O1         -1.0772    2.0950    0.0185 O.2       1 <0>        -0.2766
     13 C10         0.0021   -0.0041    0.0020 C.3       1 <0>        -0.0242
     14 H1          0.6120   -0.3679    0.8289 H         1 <0>         0.1144
     15 C11         0.5794   -0.5065   -1.3282 C.3       1 <0>        -0.0426
     16 O2          0.5718   -1.9382   -1.3075 O.3       1 <0>        -0.2036
     17 C12        -0.5720   -2.5374   -0.8770 C.ar      1 <0>         0.0111
     18 C13        -0.7862   -3.8782   -1.1604 C.ar      1 <0>        -0.1205
     19 C14        -1.9398   -4.5021   -0.7247 C.ar      1 <0>        -0.1288
     20 C15        -2.8831   -3.7921   -0.0053 C.ar      1 <0>        -0.1271
     21 C16        -2.6763   -2.4557    0.2794 C.ar      1 <0>        -0.1162
     22 C17        -1.5213   -1.8231   -0.1560 C.ar      1 <0>         0.0195
     23 O3         -1.3328   -0.5057    0.1296 O.3       1 <0>        -0.1695
     24 O4         -0.1762    5.7282    0.0230 O.3       1 <0>        -0.2650
     25 O5          2.1649    9.8636    0.0320 O.3       1 <0>        -0.2912
     26 H2          5.0398    5.5446   -1.0427 H         1 <0>         0.0915
     27 H3          5.4863    6.3152    0.4984 H         1 <0>         0.0898
     28 H4          4.6216    4.7594    0.4990 H         1 <0>         0.0811
     29 H5          4.3186    8.3799    0.0053 H         1 <0>         0.1447
     30 H6          0.0438    8.3342    0.0447 H         1 <0>         0.1553
     31 H7          3.1785    3.7305   -0.0083 H         1 <0>         0.1183
     32 H8          1.9860    1.7190   -0.0077 H         1 <0>         0.2026
     33 H9         -0.0343   -0.1473   -2.1543 H         1 <0>         0.1108
     34 H10         1.6014   -0.1460   -1.4449 H         1 <0>         0.1159
     35 H11        -0.0507   -4.4352   -1.7218 H         1 <0>         0.1446
     36 H12        -2.1045   -5.5463   -0.9462 H         1 <0>         0.1359
     37 H13        -3.7831   -4.2828    0.3348 H         1 <0>         0.1370
     38 H14        -3.4146   -1.9035    0.8418 H         1 <0>         0.1501
     39 H15        -0.5108    5.5236    0.9069 H         1 <0>         0.2445
     40 H16         2.1527   10.2610   -0.8494 H         1 <0>         0.2334
@<TRIPOS>BOND
     1    1    2 1
     2    1   26 1
     3    1   27 1
     4    1   28 1
     5    2    7 ar
     6    2    3 ar
     7    3    4 ar
     8    3   29 1
     9    4    5 ar
    10    4   25 1
    11    5    6 ar
    12    5   30 1
    13    6    7 ar
    14    6   24 1
    15    7    8 1
    16    8    9 2
    17    8   31 1
    18    9   10 1
    19   10   11 am
    20   10   32 1
    21   11   12 2
    22   11   13 1
    23   13   14 1
    24   13   23 1
    25   13   15 1
    26   15   16 1
    27   15   33 1
    28   15   34 1
    29   16   17 1
    30   17   22 ar
    31   17   18 ar
    32   18   19 ar
    33   18   35 1
    34   19   20 ar
    35   19   36 1
    36   20   21 ar
    37   20   37 1
    38   21   22 ar
    39   21   38 1
    40   22   23 1
    41   24   39 1
    42   25   40 1
@<TRIPOS>MOLECULE
ZINC01026085
   43    45     0     0     0
SMALL
USER_CHARGES

@<TRIPOS>ATOM
      1 C1         -0.5819   -2.5126   -6.9017 C.3       1 <0>        -0.1443
      2 C2         -1.4978   -2.9344   -5.7817 C.2       1 <0>         0.0815
      3 C3         -1.8385   -4.2188   -5.4695 C.2       1 <0>        -0.2407
      4 C4         -2.7390   -4.1185   -4.3112 C.2       1 <0>        -0.0515
      5 C5         -2.8577   -2.8082   -4.0489 C.2       1 <0>        -0.7037
      6 O1         -2.1144   -2.1148   -4.9253 O.3       1 <0>         0.0013
      7 S1         -3.8287   -2.1094   -2.7552 S.o2      1 <0>         2.7773
      8 O2         -4.8418   -3.0580   -2.4501 O.2       1 <0>        -0.9005
      9 O3         -4.1263   -0.7760   -3.1458 O.2       1 <0>        -0.8885
     10 N1         -2.8592   -2.0054   -1.4168 N.pl3     1 <0>        -0.8814
     11 C6         -1.6935   -1.1181   -1.4239 C.3       1 <0>        -0.0060
     12 C7         -1.1970   -0.9169    0.0093 C.3       1 <0>        -0.0914
     13 C8          0.0021   -0.0041    0.0020 C.2       1 <0>        -0.1698
     14 C9          1.2909   -0.3790   -0.0123 C.2       1 <0>        -0.0659
     15 N2          2.0983    0.7258   -0.0141 N.pl3     1 <0>        -0.1993
     16 H1          3.0681    0.7073   -0.0231 H         1 <0>         0.2414
     17 C10         1.3290    1.8677   -0.0006 C.ar      1 <0>         0.0066
     18 C11        -0.0178    1.4607    0.0101 C.ar      1 <0>        -0.0864
     19 C12        -1.0343    2.4172    0.0300 C.ar      1 <0>        -0.0774
     20 C13        -0.7155    3.7461    0.0298 C.ar      1 <0>        -0.1530
     21 C14         0.6114    4.1527    0.0193 C.ar      1 <0>        -0.1056
     22 C15         1.6305    3.2255    0.0042 C.ar      1 <0>        -0.1438
     23 C16        -1.3937   -5.4477   -6.1476 C.2       1 <0>         0.3848
     24 O4         -0.6389   -5.3784   -7.0975 O.2       1 <0>        -0.3723
     25 O5         -1.8236   -6.6494   -5.7148 O.3       1 <0>        -0.2613
     26 C17        -1.3443   -7.8181   -6.4309 C.3       1 <0>        -0.0504
     27 H2         -0.4957   -1.4261   -6.9108 H         1 <0>         0.0959
     28 H3          0.4033   -2.9541   -6.7512 H         1 <0>         0.1195
     29 H4         -0.9909   -2.8526   -7.8531 H         1 <0>         0.1229
     30 H5         -3.2103   -4.9332   -3.7814 H         1 <0>         0.1855
     31 H6         -3.0631   -2.5320   -0.6281 H         1 <0>         0.2456
     32 H7         -1.9729   -0.1546   -1.8502 H         1 <0>         0.1131
     33 H8         -0.9006   -1.5646   -2.0238 H         1 <0>         0.0778
     34 H9         -0.9176   -1.8803    0.4356 H         1 <0>         0.0840
     35 H10        -1.9899   -0.4703    0.6092 H         1 <0>         0.1001
     36 H11         1.6391   -1.4013   -0.0211 H         1 <0>         0.1648
     37 H12        -2.0691    2.1081    0.0430 H         1 <0>         0.1331
     38 H13        -1.5024    4.4857    0.0412 H         1 <0>         0.1311
     39 H14         0.8476    5.2066    0.0226 H         1 <0>         0.1306
     40 H15         2.6600    3.5519   -0.0043 H         1 <0>         0.1255
     41 H16        -1.6515   -7.7557   -7.4749 H         1 <0>         0.0838
     42 H17        -0.2566   -7.8582   -6.3740 H         1 <0>         0.0817
     43 H18        -1.7652   -8.7175   -5.9814 H         1 <0>         0.1053
@<TRIPOS>BOND
     1    1    2 1
     2    1   27 1
     3    1   28 1
     4    1   29 1
     5    2    6 1
     6    2    3 2
     7    3    4 1
     8    3   23 1
     9    4    5 2
    10    4   30 1
    11    5    6 1
    12    5    7 1
    13    7    8 2
    14    7    9 2
    15    7   10 1
    16   10   11 1
    17   10   31 1
    18   11   12 1
    19   11   32 1
    20   11   33 1
    21   12   13 1
    22   12   34 1
    23   12   35 1
    24   13   18 1
    25   13   14 2
    26   14   15 1
    27   14   36 1
    28   15   16 1
    29   15   17 1
    30   17   22 ar
    31   17   18 ar
    32   18   19 ar
    33   19   20 ar
    34   19   37 1
    35   20   21 ar
    36   20   38 1
    37   21   22 ar
    38   21   39 1
    39   22   40 1
    40   23   24 2
    41   23   25 1
    42   25   26 1
    43   26   41 1
    44   26   42 1
    45   26   43 1
@<TRIPOS>MOLECULE
ZINC01034440
   37    39     0     0     0
SMALL
USER_CHARGES

@<TRIPOS>ATOM
      1 C1         -2.4923    0.8111    2.5907 C.3       1 <0>        -0.1615
      2 C2         -3.0888    0.4746    1.2483 C.2       1 <0>        -0.0642
      3 C3         -4.2447   -0.2058    1.1452 C.2       1 <0>        -0.3784
      4 S1         -4.4875   -0.3369   -0.6141 S.3       1 <0>         0.5073
      5 C4         -3.0787    0.5064   -1.1640 C.2       1 <0>        -0.1359
      6 C5         -2.4470    0.8735    0.0184 C.2       1 <0>        -0.2445
      7 C6         -1.1873    1.6238    0.0165 C.2       1 <0>         0.3622
      8 O1         -1.2038    2.8408    0.0232 O.2       1 <0>        -0.3593
      9 N1         -0.0111    0.9658    0.0074 N.am      1 <0>        -0.4303
     10 N2         -2.6779    0.7552   -2.4679 N.am      1 <0>        -0.2683
     11 C7         -3.4275    0.3168   -3.4986 C.2       1 <0>         0.2802
     12 O2         -4.4526   -0.2954   -3.2856 O.2       1 <0>        -0.3209
     13 C8         -2.9919    0.5872   -4.9157 C.3       1 <0>        -0.0209
     14 N3         -3.9683    0.0129   -5.8447 N.am      1 <0>        -0.3082
     15 C9         -3.9049   -1.2366   -6.3393 C.2       1 <0>         0.3680
     16 O3         -3.0428   -2.0548   -6.0898 O.2       1 <0>        -0.3004
     17 C10        -5.0618   -1.4479   -7.2348 C.ar      1 <0>        -0.1280
     18 C11        -5.5099   -2.5109   -8.0024 C.ar      1 <0>        -0.0585
     19 C12        -6.6655   -2.3755   -8.7557 C.ar      1 <0>        -0.1132
     20 C13        -7.3731   -1.1880   -8.7461 C.ar      1 <0>        -0.1127
     21 C14        -6.9368   -0.1162   -7.9831 C.ar      1 <0>        -0.0582
     22 C15        -5.7832   -0.2371   -7.2250 C.ar      1 <0>        -0.1268
     23 C16        -5.0431    0.6674   -6.3200 C.2       1 <0>         0.3668
     24 O4         -5.3534    1.8103   -6.0507 O.2       1 <0>        -0.2948
     25 H1         -2.8740    1.7753    2.9265 H         1 <0>         0.0974
     26 H2         -2.7647    0.0411    3.3125 H         1 <0>         0.0810
     27 H3         -1.4069    0.8602    2.5039 H         1 <0>         0.0821
     28 H4         -4.8720   -0.5850    1.9383 H         1 <0>         0.1892
     29 H5          0.0021   -0.0041    0.0020 H         1 <0>         0.2200
     30 H6          0.8223    1.4622    0.0021 H         1 <0>         0.2265
     31 H7         -1.8580    1.2448   -2.6382 H         1 <0>         0.2474
     32 H8         -2.9265    1.6632   -5.0766 H         1 <0>         0.1367
     33 H9         -2.0157    0.1340   -5.0885 H         1 <0>         0.1325
     34 H10        -4.9609   -3.4409   -8.0139 H         1 <0>         0.1510
     35 H11        -7.0154   -3.2033   -9.3546 H         1 <0>         0.1425
     36 H12        -8.2719   -1.0946   -9.3376 H         1 <0>         0.1427
     37 H13        -7.4938    0.8090   -7.9791 H         1 <0>         0.1519
@<TRIPOS>BOND
     1    1    2 1
     2    1   25 1
     3    1   26 1
     4    1   27 1
     5    2    6 1
     6    2    3 2
     7    3    4 1
     8    3   28 1
     9    4    5 1
    10    5    6 2
    11    5   10 1
    12    6    7 1
    13    7    8 2
    14    7    9 am
    15    9   29 1
    16    9   30 1
    17   10   11 am
    18   10   31 1
    19   11   12 2
    20   11   13 1
    21   13   14 1
    22   13   32 1
    23   13   33 1
    24   14   23 am
    25   14   15 am
    26   15   16 2
    27   15   17 1
    28   17   22 ar
    29   17   18 ar
    30   18   19 ar
    31   18   34 1
    32   19   20 ar
    33   19   35 1
    34   20   21 ar
    35   20   36 1
    36   21   22 ar
    37   21   37 1
    38   22   23 1
    39   23   24 2
@<TRIPOS>MOLECULE
ZINC01049914
   42    43     0     0     0
SMALL
USER_CHARGES

@<TRIPOS>ATOM
      1 C1          2.2212   -0.4997    0.0715 C.3       1 <0>        -0.0661
      2 O1          2.2991    0.8990    0.3535 O.3       1 <0>        -0.1898
      3 C2          1.1291    1.5875    0.3857 C.ar      1 <0>         0.0970
      4 C3         -0.0696    0.9276    0.1500 C.ar      1 <0>        -0.1996
      5 C4         -1.2589    1.6226    0.1758 C.ar      1 <0>        -0.1057
      6 C5         -1.2617    2.9927    0.4510 C.ar      1 <0>        -0.1338
      7 C6         -0.0551    3.6571    0.6878 C.ar      1 <0>        -0.1267
      8 C7          1.1342    2.9554    0.6548 C.ar      1 <0>         0.0639
      9 O2          2.3100    3.5987    0.8852 O.3       1 <0>        -0.1957
     10 C8          2.2407    5.0004    1.1543 C.3       1 <0>        -0.0682
     11 C9         -2.5348    3.7372    0.4856 C.2       1 <0>         0.3191
     12 O3         -2.5352    4.9299    0.7202 O.2       1 <0>        -0.2364
     13 N1         -3.6975    3.0950    0.2570 N.am      1 <0>        -0.2900
     14 C10        -4.8606    3.7752    0.2886 C.2       1 <0>         0.1540
     15 S1         -4.8612    5.4550    0.6190 S.2       1 <0>        -0.2845
     16 N2         -6.0233    3.1330    0.0600 N.pl3     1 <0>        -0.2514
     17 C11        -7.2310    3.8127    0.1898 C.ar      1 <0>         0.1040
     18 C12        -7.3943    5.0630   -0.3923 C.ar      1 <0>        -0.0938
     19 C13        -8.5946    5.7325   -0.2672 C.ar      1 <0>        -0.1014
     20 C14        -9.6401    5.1703    0.4477 C.ar      1 <0>        -0.1324
     21 C15        -9.4945    3.9333    1.0370 C.ar      1 <0>        -0.1062
     22 C16        -8.2876    3.2407    0.9143 C.ar      1 <0>        -0.1474
     23 C17        -8.1248    1.9164    1.5429 C.2       1 <0>         0.3605
     24 O4         -7.0431    1.3615    1.5203 O.2       1 <0>        -0.3986
     25 N3         -9.1751    1.3214    2.1425 N.am      1 <0>        -0.4216
     26 H1          3.2237   -0.9276    0.0758 H         1 <0>         0.1133
     27 H2          1.6135   -0.9904    0.8317 H         1 <0>         0.0682
     28 H3          1.7671   -0.6481   -0.9082 H         1 <0>         0.0673
     29 H4         -0.0693   -0.1321   -0.0585 H         1 <0>         0.1436
     30 H5         -2.1895    1.1077   -0.0123 H         1 <0>         0.1224
     31 H6         -0.0525    4.7169    0.8958 H         1 <0>         0.1696
     32 H7          1.7888    5.5117    0.3044 H         1 <0>         0.0720
     33 H8          1.6348    5.1700    2.0444 H         1 <0>         0.0729
     34 H9          3.2457    5.3888    1.3196 H         1 <0>         0.1117
     35 H10        -3.6972    2.1432    0.0698 H         1 <0>         0.2315
     36 H11        -6.0184    2.1971   -0.1950 H         1 <0>         0.2484
     37 H12        -6.5827    5.5098   -0.9473 H         1 <0>         0.1766
     38 H13        -8.7183    6.7026   -0.7255 H         1 <0>         0.1410
     39 H14       -10.5738    5.7046    0.5438 H         1 <0>         0.1340
     40 H15       -10.3124    3.4999    1.5933 H         1 <0>         0.1259
     41 H16       -10.0379    1.7641    2.1605 H         1 <0>         0.2202
     42 H17        -9.0680    0.4505    2.5559 H         1 <0>         0.2323
@<TRIPOS>BOND
     1    1    2 1
     2    1   26 1
     3    1   27 1
     4    1   28 1
     5    2    3 1
     6    3    8 ar
     7    3    4 ar
     8    4    5 ar
     9    4   29 1
    10    5    6 ar
    11    5   30 1
    12    6    7 ar
    13    6   11 1
    14    7    8 ar
    15    7   31 1
    16    8    9 1
    17    9   10 1
    18   10   32 1
    19   10   33 1
    20   10   34 1
    21   11   12 2
    22   11   13 am
    23   13   14 1
    24   13   35 1
    25   14   15 2
    26   14   16 1
    27   16   17 1
    28   16   36 1
    29   17   22 ar
    30   17   18 ar
    31   18   19 ar
    32   18   37 1
    33   19   20 ar
    34   19   38 1
    35   20   21 ar
    36   20   39 1
    37   21   22 ar
    38   21   40 1
    39   22   23 1
    40   23   24 2
    41   23   25 am
    42   25   41 1
    43   25   42 1
@<TRIPOS>MOLECULE
ZINC01050089
   39    41     0     0     0
SMALL
USER_CHARGES

@<TRIPOS>ATOM
      1 C1          4.8754   -0.5863   -0.0480 C.3       1 <0>        -0.0404
      2 N1          3.4427   -0.8919   -0.0355 N.am      1 <0>        -0.2610
      3 C2          2.4100    0.0426   -0.0207 C.ar      1 <0>         0.0573
      4 C3          2.3811    1.4289   -0.0126 C.ar      1 <0>        -0.1492
      5 C4          1.1693    2.0911    0.0021 C.ar      1 <0>        -0.0335
      6 C5         -0.0167    1.3768    0.0096 C.ar      1 <0>        -0.7677
      7 C6          0.0021   -0.0041    0.0020 C.ar      1 <0>        -0.0188
      8 C7          1.2139   -0.6778   -0.0131 C.ar      1 <0>        -0.0177
      9 N2          1.5569   -2.0277   -0.0237 N.am      1 <0>        -0.2617
     10 C8          2.8998   -2.1240   -0.0370 C.2       1 <0>         0.3917
     11 O1          3.5276   -3.1664   -0.0492 O.2       1 <0>        -0.3741
     12 C9          0.6168   -3.1513   -0.0207 C.3       1 <0>        -0.0382
     13 S1         -1.5565    2.2332    0.0215 S.o2      1 <0>         2.7624
     14 O2         -1.3087    3.5219   -0.5235 O.2       1 <0>        -0.8912
     15 O3         -2.5193    1.3453   -0.5296 O.2       1 <0>        -0.9052
     16 N3         -1.9769    2.4626    1.6068 N.pl3     1 <0>        -0.7608
     17 N4         -1.1367    3.1953    2.4554 N.pl3     1 <0>        -0.2650
     18 C10        -1.6383    4.2947    3.1557 C.ar      1 <0>         0.1179
     19 C11        -2.9685    4.6666    3.0075 C.ar      1 <0>        -0.1873
     20 C12        -3.4624    5.7513    3.7052 C.ar      1 <0>        -0.0831
     21 C13        -2.6317    6.4734    4.5424 C.ar      1 <0>        -0.1759
     22 C14        -1.3057    6.1091    4.6881 C.ar      1 <0>        -0.0821
     23 C15        -0.8066    5.0223    3.9975 C.ar      1 <0>        -0.1993
     24 H1          5.2407   -0.5158    0.9765 H         1 <0>         0.0850
     25 H2          5.4113   -1.3783   -0.5711 H         1 <0>         0.1138
     26 H3          5.0401    0.3625   -0.5586 H         1 <0>         0.0885
     27 H4          3.3042    1.9895   -0.0187 H         1 <0>         0.1425
     28 H5          1.1466    3.1709    0.0081 H         1 <0>         0.1589
     29 H6         -0.9251   -0.5580    0.0082 H         1 <0>         0.1548
     30 H7          0.3738   -3.4244   -1.0476 H         1 <0>         0.0873
     31 H8          1.0710   -4.0038    0.4842 H         1 <0>         0.1110
     32 H9         -0.2940   -2.8616    0.5034 H         1 <0>         0.0873
     33 H10        -2.8049    2.0897    1.9478 H         1 <0>         0.2505
     34 H11        -0.2067    2.9390    2.5565 H         1 <0>         0.2539
     35 H12        -3.6167    4.1058    2.3505 H         1 <0>         0.1323
     36 H13        -4.4975    6.0385    3.5936 H         1 <0>         0.1308
     37 H14        -3.0194    7.3240    5.0833 H         1 <0>         0.1295
     38 H15        -0.6597    6.6750    5.3430 H         1 <0>         0.1302
     39 H16         0.2292    4.7385    4.1115 H         1 <0>         0.1266
@<TRIPOS>BOND
     1    1    2 1
     2    1   24 1
     3    1   25 1
     4    1   26 1
     5    2   10 am
     6    2    3 1
     7    3    8 ar
     8    3    4 ar
     9    4    5 ar
    10    4   27 1
    11    5    6 ar
    12    5   28 1
    13    6    7 ar
    14    6   13 1
    15    7    8 ar
    16    7   29 1
    17    8    9 1
    18    9   10 am
    19    9   12 1
    20   10   11 2
    21   12   30 1
    22   12   31 1
    23   12   32 1
    24   13   14 2
    25   13   15 2
    26   13   16 1
    27   16   17 1
    28   16   33 1
    29   17   18 1
    30   17   34 1
    31   18   23 ar
    32   18   19 ar
    33   19   20 ar
    34   19   35 1
    35   20   21 ar
    36   20   36 1
    37   21   22 ar
    38   21   37 1
    39   22   23 ar
    40   22   38 1
    41   23   39 1
@<TRIPOS>MOLECULE
ZINC01050101
   42    44     0     0     0
SMALL
USER_CHARGES

@<TRIPOS>ATOM
      1 C1         -2.6486    4.0447   -5.2675 C.3       1 <0>        -0.0634
      2 O1         -1.6935    3.8914   -4.2157 O.3       1 <0>        -0.2069
      3 C2         -1.9107    2.8859   -3.3263 C.ar      1 <0>         0.0404
      4 C3         -3.0204    2.0651   -3.4647 C.ar      1 <0>        -0.1291
      5 C4         -3.2407    1.0436   -2.5617 C.ar      1 <0>        -0.2006
      6 C5         -2.3526    0.8387   -1.5160 C.ar      1 <0>         0.1525
      7 C6         -1.2432    1.6593   -1.3776 C.ar      1 <0>        -0.7562
      8 C7         -1.0254    2.6841   -2.2781 C.ar      1 <0>        -0.0307
      9 S1         -0.1154    1.3993   -0.0490 S.o2      1 <0>         2.7695
     10 O2          0.2222    0.0191   -0.0670 O.2       1 <0>        -0.8952
     11 O3          0.8643    2.4245   -0.1415 O.2       1 <0>        -0.8996
     12 N1         -0.9470    1.6649    1.3582 N.pl3     1 <0>        -0.8002
     13 C8         -1.3869    2.9517    1.6773 C.ar      1 <0>         0.0906
     14 C9         -1.8143    3.8055    0.6837 C.ar      1 <0>        -0.1765
     15 C10        -2.2555    5.0899    0.9884 C.ar      1 <0>        -0.1180
     16 C11        -2.2766    5.5392    2.2780 C.ar      1 <0>         0.0576
     17 C12        -1.8470    4.6959    3.3215 C.ar      1 <0>        -0.0373
     18 C13        -1.4025    3.3849    3.0198 C.ar      1 <0>        -0.0407
     19 C14        -0.9688    2.5477    4.0602 C.ar      1 <0>        -0.1134
     20 C15        -0.9916    3.0010    5.3438 C.ar      1 <0>        -0.1224
     21 C16        -1.4340    4.2885    5.6417 C.ar      1 <0>        -0.1232
     22 C17        -1.8563    5.1291    4.6579 C.ar      1 <0>        -0.1089
     23 O4         -2.7117    6.7973    2.5541 O.3       1 <0>        -0.2862
     24 O5         -2.5700   -0.1665   -0.6264 O.3       1 <0>        -0.2112
     25 C18        -3.7323   -0.9726   -0.8296 C.3       1 <0>        -0.0586
     26 H1         -2.6851    3.1313   -5.8612 H         1 <0>         0.0674
     27 H2         -3.6321    4.2395   -4.8397 H         1 <0>         0.0653
     28 H3         -2.3573    4.8804   -5.9038 H         1 <0>         0.1134
     29 H4         -3.7123    2.2251   -4.2784 H         1 <0>         0.1406
     30 H5         -4.1047    0.4046   -2.6695 H         1 <0>         0.1418
     31 H6         -0.1636    3.3257   -2.1680 H         1 <0>         0.1783
     32 H7         -1.1285    0.9269    1.9609 H         1 <0>         0.2552
     33 H8         -1.8072    3.4737   -0.3441 H         1 <0>         0.1460
     34 H9         -2.5858    5.7413    0.1928 H         1 <0>         0.1431
     35 H10        -0.6238    1.5475    3.8439 H         1 <0>         0.1310
     36 H11        -0.6623    2.3533    6.1429 H         1 <0>         0.1301
     37 H12        -1.4422    4.6241    6.6682 H         1 <0>         0.1302
     38 H13        -2.1972    6.1241    4.9035 H         1 <0>         0.1432
     39 H14        -3.6614    6.8560    2.7268 H         1 <0>         0.2232
     40 H15        -3.6750   -1.4531   -1.8062 H         1 <0>         0.0747
     41 H16        -3.7863   -1.7347   -0.0522 H         1 <0>         0.1159
     42 H17        -4.6222   -0.3447   -0.7853 H         1 <0>         0.0683
@<TRIPOS>BOND
     1    1    2 1
     2    1   26 1
     3    1   27 1
     4    1   28 1
     5    2    3 1
     6    3    8 ar
     7    3    4 ar
     8    4    5 ar
     9    4   29 1
    10    5    6 ar
    11    5   30 1
    12    6    7 ar
    13    6   24 1
    14    7    8 ar
    15    7    9 1
    16    8   31 1
    17    9   10 2
    18    9   11 2
    19    9   12 1
    20   12   13 1
    21   12   32 1
    22   13   18 ar
    23   13   14 ar
    24   14   15 ar
    25   14   33 1
    26   15   16 ar
    27   15   34 1
    28   16   17 ar
    29   16   23 1
    30   17   22 ar
    31   17   18 ar
    32   18   19 ar
    33   19   20 ar
    34   19   35 1
    35   20   21 ar
    36   20   36 1
    37   21   22 ar
    38   21   37 1
    39   22   38 1
    40   23   39 1
    41   24   25 1
    42   25   40 1
    43   25   41 1
    44   25   42 1
@<TRIPOS>MOLECULE
ZINC01053398
   40    41     0     0     0
SMALL
USER_CHARGES

@<TRIPOS>ATOM
      1 C1          6.1320    1.3463   -0.0489 C.3       1 <0>        -0.1784
      2 C2          4.7054    0.8609   -0.0375 C.2       1 <0>         0.0250
      3 C3          3.6438    1.7532   -0.0233 C.2       1 <0>        -0.2224
      4 C4          2.3489    1.2239   -0.0138 C.2       1 <0>        -0.1149
      5 S1          2.6298   -0.4865   -0.0180 S.3       1 <0>         0.5370
      6 C5          4.4123   -0.4756   -0.0411 C.2       1 <0>        -0.4107
      7 C6          5.3336   -1.6138   -0.0547 C.2       1 <0>         0.4022
      8 O1          6.5359   -1.4235   -0.0646 O.2       1 <0>        -0.3664
      9 N1          4.8504   -2.8719   -0.0563 N.am      1 <0>        -0.4250
     10 N2          1.1435    1.8982    0.0013 N.am      1 <0>        -0.2674
     11 C7         -0.0144    1.2085    0.0087 C.2       1 <0>         0.2938
     12 O2          0.0021   -0.0041    0.0020 O.2       1 <0>        -0.3012
     13 C8         -1.3296    1.9441    0.0189 C.3       1 <0>        -0.0279
     14 O3         -2.4030    1.0009    0.0189 O.3       1 <0>        -0.1807
     15 C9         -3.6657    1.5032    0.0276 C.ar      1 <0>         0.0904
     16 C10        -3.8675    2.8757    0.0418 C.ar      1 <0>        -0.2239
     17 C11        -5.1521    3.3838    0.0443 C.ar      1 <0>        -0.0877
     18 C12        -6.2362    2.5257    0.0453 C.ar      1 <0>        -0.1610
     19 C13        -6.0378    1.1574    0.0369 C.ar      1 <0>        -0.0903
     20 C14        -4.7552    0.6443    0.0281 C.ar      1 <0>        -0.1474
     21 C15         3.8710    3.2027   -0.0190 C.2       1 <0>         0.3610
     22 O4          3.9752    3.7986    1.0359 O.2       1 <0>        -0.3453
     23 O5          3.9642    3.8740   -1.1847 O.3       1 <0>        -0.2618
     24 C16         4.1895    5.3062   -1.1044 C.3       1 <0>        -0.0562
     25 H1          6.4858    1.4587    0.9759 H         1 <0>         0.1038
     26 H2          6.7577    0.6231   -0.5720 H         1 <0>         0.1269
     27 H3          6.1844    2.3082   -0.5590 H         1 <0>         0.0783
     28 H4          3.8923   -3.0235   -0.0485 H         1 <0>         0.2169
     29 H5          5.4607   -3.6258   -0.0653 H         1 <0>         0.2352
     30 H6          1.1304    2.8681    0.0067 H         1 <0>         0.2493
     31 H7         -1.3916    2.5651    0.9126 H         1 <0>         0.1019
     32 H8         -1.4000    2.5748   -0.8673 H         1 <0>         0.1003
     33 H9         -3.0209    3.5463    0.0459 H         1 <0>         0.1269
     34 H10        -5.3096    4.4523    0.0508 H         1 <0>         0.1316
     35 H11        -7.2397    2.9249    0.0522 H         1 <0>         0.1330
     36 H12        -6.8862    0.4892    0.0370 H         1 <0>         0.1372
     37 H13        -4.6007   -0.4246    0.0220 H         1 <0>         0.1490
     38 H14         5.1258    5.4979   -0.5803 H         1 <0>         0.0869
     39 H15         4.2443    5.7223   -2.1103 H         1 <0>         0.1061
     40 H16         3.3674    5.7735   -0.5622 H         1 <0>         0.0758
@<TRIPOS>BOND
     1    1    2 1
     2    1   25 1
     3    1   26 1
     4    1   27 1
     5    2    6 2
     6    2    3 1
     7    3    4 2
     8    3   21 1
     9    4    5 1
    10    4   10 1
    11    5    6 1
    12    6    7 1
    13    7    8 2
    14    7    9 am
    15    9   28 1
    16    9   29 1
    17   10   11 am
    18   10   30 1
    19   11   12 2
    20   11   13 1
    21   13   14 1
    22   13   31 1
    23   13   32 1
    24   14   15 1
    25   15   20 ar
    26   15   16 ar
    27   16   17 ar
    28   16   33 1
    29   17   18 ar
    30   17   34 1
    31   18   19 ar
    32   18   35 1
    33   19   20 ar
    34   19   36 1
    35   20   37 1
    36   21   22 2
    37   21   23 1
    38   23   24 1
    39   24   38 1
    40   24   39 1
    41   24   40 1
@<TRIPOS>MOLECULE
ZINC01054225
   41    43     0     0     0
SMALL
USER_CHARGES

@<TRIPOS>ATOM
      1 C1         -1.9463    9.0677   -5.5497 C.ar      1 <0>        -0.1366
      2 C2         -2.2326    9.1343   -6.9005 C.ar      1 <0>        -0.0286
      3 C3         -3.5256    8.9287   -7.3439 C.ar      1 <0>        -0.7562
      4 C4         -4.5317    8.6526   -6.4370 C.ar      1 <0>        -0.0286
      5 C5         -4.2446    8.5817   -5.0866 C.ar      1 <0>        -0.1366
      6 C6         -2.9514    8.7864   -4.6433 C.ar      1 <0>        -0.0539
      7 C7         -2.6384    8.7091   -3.1711 C.3       1 <0>         0.0310
      8 N1         -2.2801    7.3328   -2.8197 N.am      1 <0>        -0.3865
      9 C8         -1.9591    7.0239   -1.5477 C.2       1 <0>         0.3938
     10 O1         -1.9669    7.8883   -0.6910 O.2       1 <0>        -0.3610
     11 C9         -1.6005    5.6468   -1.1961 C.2       1 <0>        -0.3513
     12 C10        -1.2437    5.1256    0.0338 C.2       1 <0>        -0.0817
     13 C11        -0.9466    3.7746    0.1106 C.2       1 <0>        -0.1415
     14 C12        -1.0309    3.0593   -1.0499 C.2       1 <0>        -0.2649
     15 S1         -1.5110    4.2044   -2.2436 S.3       1 <0>         0.3886
     16 C13        -0.7612    1.5974   -1.2312 C.3       1 <0>        -0.0834
     17 C14        -0.0127    1.0858    0.0080 C.3       1 <0>        -0.1551
     18 C15        -0.7354    1.5826    1.2633 C.3       1 <0>        -0.1605
     19 C16        -0.5423    3.0911    1.4143 C.3       1 <0>        -0.0972
     20 S2         -3.8913    9.0179   -9.0652 S.o2      1 <0>         2.7613
     21 O2         -2.6769    8.7503   -9.7528 O.2       1 <0>        -0.9151
     22 O3         -5.0684    8.2488   -9.2707 O.2       1 <0>        -0.9151
     23 N2         -4.2886   10.5901   -9.4006 N.pl3     1 <0>        -0.9306
     24 H1         -0.9368    9.2319   -5.2029 H         1 <0>         0.1446
     25 H2         -1.4465    9.3496   -7.6091 H         1 <0>         0.1563
     26 H3         -5.5419    8.4920   -6.7834 H         1 <0>         0.1562
     27 H4         -5.0306    8.3661   -4.3781 H         1 <0>         0.1446
     28 H5         -3.5133    9.0146   -2.5972 H         1 <0>         0.1042
     29 H6         -1.8039    9.3717   -2.9418 H         1 <0>         0.1042
     30 H7         -2.2738    6.6438   -3.5025 H         1 <0>         0.2300
     31 H8         -1.1974    5.7545    0.9106 H         1 <0>         0.1628
     32 H9         -0.1482    1.4445   -2.1195 H         1 <0>         0.0969
     33 H10        -1.7039    1.0607   -1.3383 H         1 <0>         0.1005
     34 H11         0.0021   -0.0041    0.0020 H         1 <0>         0.0862
     35 H12         1.0091    1.4652    0.0003 H         1 <0>         0.0901
     36 H13        -1.7997    1.3632    1.1788 H         1 <0>         0.0877
     37 H14        -0.3309    1.0746    2.1387 H         1 <0>         0.0843
     38 H15         0.5052    3.3030    1.6284 H         1 <0>         0.0931
     39 H16        -1.1656    3.4602    2.2288 H         1 <0>         0.0927
     40 H17        -4.2848   11.2530   -8.6923 H         1 <0>         0.2304
     41 H18        -4.5251   10.8483  -10.3052 H         1 <0>         0.2451
@<TRIPOS>BOND
     1    1    6 ar
     2    1    2 ar
     3    1   24 1
     4    2    3 ar
     5    2   25 1
     6    3    4 ar
     7    3   20 1
     8    4    5 ar
     9    4   26 1
    10    5    6 ar
    11    5   27 1
    12    6    7 1
    13    7    8 1
    14    7   28 1
    15    7   29 1
    16    8    9 am
    17    8   30 1
    18    9   10 2
    19    9   11 1
    20   11   15 1
    21   11   12 2
    22   12   13 1
    23   12   31 1
    24   13   19 1
    25   13   14 2
    26   14   15 1
    27   14   16 1
    28   16   17 1
    29   16   32 1
    30   16   33 1
    31   17   18 1
    32   17   34 1
    33   17   35 1
    34   18   19 1
    35   18   36 1
    36   18   37 1
    37   19   38 1
    38   19   39 1
    39   20   21 2
    40   20   22 2
    41   20   23 1
    42   23   40 1
    43   23   41 1
@<TRIPOS>MOLECULE
ZINC01054565
   39    42     0     0     0
SMALL
USER_CHARGES

@<TRIPOS>ATOM
      1 C1          1.3271    0.5247   -8.0755 C.ar      1 <0>        -0.1579
      2 C2          0.5234    0.9821   -9.1108 C.ar      1 <0>        -0.0643
      3 C3         -0.6575    1.6417   -8.8447 C.ar      1 <0>        -0.1510
      4 C4         -1.0539    1.8542   -7.5287 C.ar      1 <0>         0.1395
      5 C5         -0.2383    1.3896   -6.4813 C.ar      1 <0>        -0.1640
      6 C6          0.9595    0.7206   -6.7757 C.ar      1 <0>        -0.0615
      7 C7         -0.6266    1.5967   -5.1335 C.2       1 <0>         0.0043
      8 C8         -1.8147    2.2599   -4.8782 C.2       1 <0>        -0.2422
      9 C9         -2.6270    2.7169   -6.0118 C.2       1 <0>         0.3606
     10 O1         -3.6771    3.2978   -5.8109 O.2       1 <0>        -0.2429
     11 O2         -2.2112    2.5002   -7.2707 O.3       1 <0>        -0.1623
     12 C10        -2.2583    2.4971   -3.4947 C.2       1 <0>         0.3494
     13 O3         -3.3040    3.0810   -3.2829 O.2       1 <0>        -0.2966
     14 N1         -1.5055    2.0672   -2.4627 N.am      1 <0>        -0.2721
     15 C11        -1.9229    2.2904   -1.1607 C.2       1 <0>        -0.1450
     16 C12        -1.2938    1.9286    0.0187 C.2       1 <0>        -0.2285
     17 C13        -1.9493    2.2918    1.2746 C.2       1 <0>        -0.0897
     18 C14        -3.1164    2.9471    1.1411 C.2       1 <0>        -0.3498
     19 S1         -3.3588    3.0864   -0.6129 S.3       1 <0>         0.5584
     20 C15        -3.7266    3.2898    2.4732 C.3       1 <0>        -0.0691
     21 C16        -2.5680    3.1368    3.4831 C.3       1 <0>        -0.1606
     22 C17        -1.6586    2.1192    2.7660 C.3       1 <0>        -0.0979
     23 C18        -0.0144    1.2129    0.0087 C.2       1 <0>         0.3607
     24 O4          0.0021   -0.0041    0.0020 O.2       1 <0>        -0.3629
     25 N2          1.1435    1.9026    0.0014 N.am      1 <0>        -0.4313
     26 H1          2.2497    0.0103   -8.3000 H         1 <0>         0.1421
     27 H2          0.8263    0.8198  -10.1347 H         1 <0>         0.1449
     28 H3         -1.2746    1.9938   -9.6581 H         1 <0>         0.1587
     29 H4          1.5897    0.3621   -5.9753 H         1 <0>         0.1409
     30 H5         -0.0075    1.2443   -4.3218 H         1 <0>         0.1424
     31 H6         -0.6715    1.6016   -2.6316 H         1 <0>         0.2415
     32 H7         -4.0950    4.3157    2.4699 H         1 <0>         0.0906
     33 H8         -4.5329    2.5962    2.7117 H         1 <0>         0.0988
     34 H9         -2.0515    4.0852    3.6309 H         1 <0>         0.0908
     35 H10        -2.9275    2.7386    4.4320 H         1 <0>         0.0926
     36 H11        -1.9034    1.1055    3.0831 H         1 <0>         0.1031
     37 H12        -0.6110    2.3375    2.9738 H         1 <0>         0.0861
     38 H13         1.9900    1.4291   -0.0093 H         1 <0>         0.2244
     39 H14         1.1303    2.8725    0.0067 H         1 <0>         0.2199
@<TRIPOS>BOND
     1    1    6 ar
     2    1    2 ar
     3    1   26 1
     4    2    3 ar
     5    2   27 1
     6    3    4 ar
     7    3   28 1
     8    4   11 1
     9    4    5 ar
    10    5    6 ar
    11    5    7 1
    12    6   29 1
    13    7    8 2
    14    7   30 1
    15    8    9 1
    16    8   12 1
    17    9   10 2
    18    9   11 1
    19   12   13 2
    20   12   14 am
    21   14   15 1
    22   14   31 1
    23   15   19 1
    24   15   16 2
    25   16   17 1
    26   16   23 1
    27   17   22 1
    28   17   18 2
    29   18   19 1
    30   18   20 1
    31   20   21 1
    32   20   32 1
    33   20   33 1
    34   21   22 1
    35   21   34 1
    36   21   35 1
    37   22   36 1
    38   22   37 1
    39   23   24 2
    40   23   25 am
    41   25   38 1
    42   25   39 1
@<TRIPOS>MOLECULE
ZINC01055805
   41    43     0     0     0
SMALL
USER_CHARGES

@<TRIPOS>ATOM
      1 C1         -0.0167    1.3781    0.0096 C.ar      1 <0>        -0.1378
      2 C2          0.0021   -0.0041    0.0020 C.ar      1 <0>        -0.0287
      3 C3          1.2084   -0.6789   -0.0132 C.ar      1 <0>        -0.7569
      4 C4          2.3961    0.0285   -0.0212 C.ar      1 <0>        -0.0288
      5 C5          2.3773    1.4107   -0.0145 C.ar      1 <0>        -0.1378
      6 C6          1.1709    2.0855    0.0021 C.ar      1 <0>        -0.0536
      7 C7          1.1505    3.5924    0.0099 C.3       1 <0>         0.0294
      8 N1          1.1568    4.0736    1.3936 N.am      1 <0>        -0.3886
      9 C8          1.1412    5.3973    1.6467 C.2       1 <0>         0.3618
     10 O1          1.1218    6.1924    0.7264 O.2       1 <0>        -0.3726
     11 C9          1.1475    5.8809    3.0369 C.2       1 <0>        -0.1679
     12 C10         1.1699    5.0004    4.0960 C.2       1 <0>        -0.3264
     13 S1          1.1693    6.0439    5.4794 S.3       1 <0>         0.3978
     14 C11         1.1401    7.6093    4.6532 C.2       1 <0>        -0.2823
     15 C12         1.1366    7.3003    3.3362 C.2       1 <0>        -0.0640
     16 C13         1.1043    8.3928    2.2749 C.3       1 <0>        -0.0975
     17 C14         0.6361    9.6970    2.9233 C.3       1 <0>        -0.1645
     18 C15         1.4818    9.9949    4.1648 C.3       1 <0>        -0.1567
     19 C16         1.1288    8.9778    5.2600 C.3       1 <0>        -0.0775
     20 S2          1.2323   -2.4407   -0.0217 S.o2      1 <0>         2.7614
     21 O2          2.4885   -2.8324    0.5148 O.2       1 <0>        -0.9152
     22 O3         -0.0018   -2.8663    0.5395 O.2       1 <0>        -0.9153
     23 N2          1.2232   -2.9228   -1.6059 N.pl3     1 <0>        -0.9305
     24 H1         -0.9592    1.9054    0.0170 H         1 <0>         0.1446
     25 H2         -0.9258   -0.5567    0.0083 H         1 <0>         0.1562
     26 H3          3.3386   -0.4987   -0.0324 H         1 <0>         0.1562
     27 H4          3.3052    1.9634   -0.0201 H         1 <0>         0.1447
     28 H5          2.0306    3.9704   -0.5103 H         1 <0>         0.1037
     29 H6          0.2509    3.9462   -0.4937 H         1 <0>         0.1035
     30 H7          1.1723    3.4396    2.1276 H         1 <0>         0.2263
     31 H8          1.1848    3.9208    4.0704 H         1 <0>         0.1842
     32 H9          0.4145    8.1123    1.4789 H         1 <0>         0.1222
     33 H10         2.1037    8.5284    1.8616 H         1 <0>         0.1013
     34 H11        -0.4105    9.6022    3.2125 H         1 <0>         0.0852
     35 H12         0.7419   10.5133    2.2089 H         1 <0>         0.0849
     36 H13         1.2673   11.0030    4.5196 H         1 <0>         0.0839
     37 H14         2.5400    9.9123    3.9169 H         1 <0>         0.0896
     38 H15         0.1374    9.1952    5.6574 H         1 <0>         0.0968
     39 H16         1.8653    9.0301    6.0618 H         1 <0>         0.0934
     40 H17         1.2072   -2.2605   -2.3144 H         1 <0>         0.2305
     41 H18         1.2339   -3.8676   -1.8254 H         1 <0>         0.2451
@<TRIPOS>BOND
     1    1    6 ar
     2    1    2 ar
     3    1   24 1
     4    2    3 ar
     5    2   25 1
     6    3    4 ar
     7    3   20 1
     8    4    5 ar
     9    4   26 1
    10    5    6 ar
    11    5   27 1
    12    6    7 1
    13    7    8 1
    14    7   28 1
    15    7   29 1
    16    8    9 am
    17    8   30 1
    18    9   10 2
    19    9   11 1
    20   11   15 1
    21   11   12 2
    22   12   13 1
    23   12   31 1
    24   13   14 1
    25   14   19 1
    26   14   15 2
    27   15   16 1
    28   16   17 1
    29   16   32 1
    30   16   33 1
    31   17   18 1
    32   17   34 1
    33   17   35 1
    34   18   19 1
    35   18   36 1
    36   18   37 1
    37   19   38 1
    38   19   39 1
    39   20   21 2
    40   20   22 2
    41   20   23 1
    42   23   40 1
    43   23   41 1
@<TRIPOS>MOLECULE
ZINC01055888
   37    38     0     0     0
SMALL
USER_CHARGES

@<TRIPOS>ATOM
      1 C1         -3.4117    3.2134   13.6095 C.3       1 <0>        -0.1301
      2 C2         -3.6721    3.3539   12.1319 C.2       1 <0>        -0.2712
      3 C3         -2.9062    2.9409   11.1031 C.2       1 <0>        -0.1282
      4 C4         -3.3942    3.2082    9.7735 C.2       1 <0>        -0.1663
      5 C5         -4.6084    3.8546    9.6692 C.2       1 <0>        -0.3295
      6 S1         -5.0711    4.0993   11.3198 S.3       1 <0>         0.3857
      7 C6         -2.6337    2.8040    8.5799 C.2       1 <0>         0.3602
      8 O1         -1.5657    2.2349    8.7031 O.2       1 <0>        -0.3635
      9 N1         -3.1206    3.0644    7.3504 N.am      1 <0>        -0.3938
     10 C7         -2.3637    2.6621    6.1624 C.3       1 <0>         0.0010
     11 C8         -3.1323    3.0725    4.9048 C.3       1 <0>        -0.1507
     12 C9         -2.3536    2.6586    3.6827 C.ar      1 <0>        -0.0189
     13 C10        -2.5594    1.4122    3.1214 C.ar      1 <0>        -0.1469
     14 C11        -1.8458    1.0330    1.9999 C.ar      1 <0>        -0.0225
     15 C12        -0.9267    1.9002    1.4394 C.ar      1 <0>        -0.7628
     16 C13        -0.7172    3.1446    2.0038 C.ar      1 <0>        -0.0224
     17 C14        -1.4339    3.5256    3.1228 C.ar      1 <0>        -0.1470
     18 S2         -0.0172    1.4168    0.0098 S.o2      1 <0>         2.7617
     19 O2          0.0021   -0.0041    0.0020 O.2       1 <0>        -0.9155
     20 O3          1.1718    2.1948    0.0027 O.2       1 <0>        -0.9156
     21 N2         -0.8975    1.8855   -1.3122 N.pl3     1 <0>        -0.9314
     22 H1         -4.2384    3.6530   14.1676 H         1 <0>         0.0864
     23 H2         -3.3225    2.1572   13.8639 H         1 <0>         0.0958
     24 H3         -2.4858    3.7283   13.8659 H         1 <0>         0.0958
     25 H4         -1.9661    2.4354   11.2675 H         1 <0>         0.1716
     26 H5         -5.1415    4.1396    8.7742 H         1 <0>         0.1817
     27 H6         -3.9723    3.5182    7.2522 H         1 <0>         0.2192
     28 H7         -2.2268    1.5807    6.1678 H         1 <0>         0.1011
     29 H8         -1.3898    3.1516    6.1691 H         1 <0>         0.1012
     30 H9         -3.2692    4.1539    4.8993 H         1 <0>         0.0955
     31 H10        -4.1061    2.5829    4.8981 H         1 <0>         0.0955
     32 H11        -3.2779    0.7349    3.5588 H         1 <0>         0.1403
     33 H12        -2.0065    0.0592    1.5613 H         1 <0>         0.1548
     34 H13         0.0040    3.8204    1.5685 H         1 <0>         0.1550
     35 H14        -1.2734    4.4995    3.5611 H         1 <0>         0.1403
     36 H15        -1.7474    2.3376   -1.1935 H         1 <0>         0.2293
     37 H16        -0.5632    1.7079   -2.2053 H         1 <0>         0.2441
@<TRIPOS>BOND
     1    1    2 1
     2    1   22 1
     3    1   23 1
     4    1   24 1
     5    2    6 1
     6    2    3 2
     7    3    4 1
     8    3   25 1
     9    4    5 2
    10    4    7 1
    11    5    6 1
    12    5   26 1
    13    7    8 2
    14    7    9 am
    15    9   10 1
    16    9   27 1
    17   10   11 1
    18   10   28 1
    19   10   29 1
    20   11   12 1
    21   11   30 1
    22   11   31 1
    23   12   17 ar
    24   12   13 ar
    25   13   14 ar
    26   13   32 1
    27   14   15 ar
    28   14   33 1
    29   15   16 ar
    30   15   18 1
    31   16   17 ar
    32   16   34 1
    33   17   35 1
    34   18   19 2
    35   18   20 2
    36   18   21 1
    37   21   36 1
    38   21   37 1
@<TRIPOS>MOLECULE
ZINC01057166
   40    42     0     0     0
SMALL
USER_CHARGES

@<TRIPOS>ATOM
      1 C1         -2.5083    1.0700   -0.0839 C.3       1 <0>        -0.1756
      2 C2         -1.2084    1.8231    0.0360 C.ar      1 <0>        -0.0366
      3 C3         -1.2271    3.1947    0.2504 C.ar      1 <0>        -0.1507
      4 C4         -0.0586    3.8948    0.3557 C.ar      1 <0>        -0.0604
      5 C5          1.1623    3.2236    0.2534 C.ar      1 <0>        -0.1391
      6 C6          2.5628    3.6400    0.3160 C.2       1 <0>        -0.0484
      7 C7          3.2989    2.5113    0.1450 C.2       1 <0>        -0.0991
      8 O1          2.4783    1.4521   -0.0150 O.3       1 <0>        -0.0872
      9 C8          1.1872    1.8324    0.0429 C.ar      1 <0>         0.0525
     10 C9         -0.0148    1.1416   -0.0617 C.ar      1 <0>        -0.1291
     11 C10         4.7671    2.4525    0.1358 C.2       1 <0>         0.3942
     12 O2          5.4176    3.4691    0.2894 O.2       1 <0>        -0.3363
     13 N1          5.3931    1.2724   -0.0430 N.am      1 <0>        -0.3206
     14 C11         6.7856    1.2308   -0.1622 C.ar      1 <0>         0.1223
     15 C12         7.4633    2.2772   -0.7747 C.ar      1 <0>        -0.1562
     16 C13         8.8394    2.2358   -0.8852 C.ar      1 <0>        -0.0080
     17 C14         9.5413    1.1485   -0.3980 C.ar      1 <0>        -0.7820
     18 C15         8.8691    0.1024    0.2072 C.ar      1 <0>        -0.0075
     19 C16         7.4937    0.1404    0.3265 C.ar      1 <0>        -0.1864
     20 S1         11.2961    1.0960   -0.5482 S.o2      1 <0>         2.7636
     21 O3         11.7343    2.4429   -0.6626 O.2       1 <0>        -0.9164
     22 O4         11.7653    0.2264    0.4729 O.2       1 <0>        -0.9188
     23 N2         11.6423    0.3614   -1.9915 N.pl3     1 <0>        -0.9319
     24 C17         3.0838    5.0382    0.5274 C.3       1 <0>        -0.1591
     25 H1         -2.8263    0.7347    0.9033 H         1 <0>         0.0919
     26 H2         -3.2697    1.7246   -0.5080 H         1 <0>         0.0870
     27 H3         -2.3690    0.2060   -0.7337 H         1 <0>         0.0854
     28 H4         -2.1716    3.7125    0.3290 H         1 <0>         0.1374
     29 H5         -0.0788    4.9625    0.5169 H         1 <0>         0.1375
     30 H6         -0.0129    0.0738   -0.2237 H         1 <0>         0.1419
     31 H7          4.8777    0.4520   -0.0889 H         1 <0>         0.2477
     32 H8          6.9153    3.1244   -1.1597 H         1 <0>         0.1659
     33 H9          9.3674    3.0512   -1.3571 H         1 <0>         0.1574
     34 H10         9.4203   -0.7450    0.5873 H         1 <0>         0.1550
     35 H11         6.9694   -0.6767    0.7996 H         1 <0>         0.1396
     36 H12        10.9222    0.0571   -2.5658 H         1 <0>         0.2290
     37 H13        12.5651    0.2355   -2.2625 H         1 <0>         0.2431
     38 H14         3.2097    5.2216    1.5945 H         1 <0>         0.0987
     39 H15         4.0444    5.1480    0.0241 H         1 <0>         0.1169
     40 H16         2.3742    5.7564    0.1166 H         1 <0>         0.0823
@<TRIPOS>BOND
     1    1    2 1
     2    1   25 1
     3    1   26 1
     4    1   27 1
     5    2   10 ar
     6    2    3 ar
     7    3    4 ar
     8    3   28 1
     9    4    5 ar
    10    4   29 1
    11    5    9 ar
    12    5    6 1
    13    6    7 2
    14    6   24 1
    15    7    8 1
    16    7   11 1
    17    8    9 1
    18    9   10 ar
    19   10   30 1
    20   11   12 2
    21   11   13 am
    22   13   14 1
    23   13   31 1
    24   14   19 ar
    25   14   15 ar
    26   15   16 ar
    27   15   32 1
    28   16   17 ar
    29   16   33 1
    30   17   18 ar
    31   17   20 1
    32   18   19 ar
    33   18   34 1
    34   19   35 1
    35   20   21 2
    36   20   22 2
    37   20   23 1
    38   23   36 1
    39   23   37 1
    40   24   38 1
    41   24   39 1
    42   24   40 1
@<TRIPOS>MOLECULE
ZINC01059584
   44    47     0     0     0
SMALL
USER_CHARGES

@<TRIPOS>ATOM
      1 C1         -6.5411    8.7346    6.8262 C.ar      1 <0>        -0.1603
      2 C2         -6.6482    8.4689    8.1792 C.ar      1 <0>        -0.0869
      3 C3         -6.9364    7.1937    8.6190 C.ar      1 <0>        -0.1625
      4 C4         -7.1211    6.1620    7.7005 C.ar      1 <0>         0.0736
      5 C5         -7.0110    6.4415    6.3444 C.ar      1 <0>        -0.1300
      6 C6         -6.7237    7.7153    5.9080 C.ar      1 <0>        -0.0553
      7 C7         -7.2611    5.1389    5.6199 C.3       1 <0>         0.1203
      8 C8         -7.5146    4.1426    6.7313 C.2       1 <0>         0.2915
      9 O1         -7.7611    2.9625    6.5985 O.2       1 <0>        -0.2958
     10 N1         -7.4156    4.8116    7.8923 N.am      1 <0>        -0.3127
     11 C9         -6.0305    4.7330    4.8065 C.3       1 <0>        -0.2147
     12 C10        -6.3050    3.4333    4.0948 C.2       1 <0>         0.2670
     13 O2         -7.3793    2.8855    4.2255 O.2       1 <0>        -0.2770
     14 C11        -5.2719    2.8300    3.2433 C.ar      1 <0>        -0.1796
     15 C12        -5.5248    1.6222    2.5809 C.ar      1 <0>        -0.0433
     16 C13        -4.5576    1.0629    1.7867 C.ar      1 <0>        -0.1808
     17 C14        -3.3255    1.6937    1.6378 C.ar      1 <0>         0.0970
     18 C15        -3.0677    2.8915    2.2988 C.ar      1 <0>        -0.1453
     19 C16        -4.0309    3.4610    3.0906 C.ar      1 <0>        -0.0719
     20 N2         -2.3456    1.1216    0.8296 N.am      1 <0>        -0.3237
     21 C17        -1.4992    1.9091    0.1368 C.2       1 <0>         0.3339
     22 O3         -1.6501    3.1124    0.1407 O.2       1 <0>        -0.3498
     23 C18        -0.3655    1.2943   -0.6428 C.3       1 <0>        -0.2236
     24 C19        -0.4379    1.3639   -2.1695 C.3       1 <0>        -0.1910
     25 C20         0.5594    2.2413   -1.4101 C.3       1 <0>        -0.1744
     26 O4         -8.4061    5.2494    4.7721 O.3       1 <0>        -0.3271
     27 H1         -6.3153    9.7348    6.4870 H         1 <0>         0.1363
     28 H2         -6.5056    9.2645    8.8956 H         1 <0>         0.1351
     29 H3         -7.0183    6.9942    9.6773 H         1 <0>         0.1334
     30 H4         -6.6413    7.9190    4.8506 H         1 <0>         0.1393
     31 H5         -7.5354    4.4029    8.7638 H         1 <0>         0.2442
     32 H6         -5.2487    4.6188    5.4194 H         1 <0>         0.1105
     33 H7         -5.8075    5.5085    4.0736 H         1 <0>         0.1249
     34 H8         -6.4803    1.1319    2.6961 H         1 <0>         0.1568
     35 H9         -4.7519    0.1317    1.2753 H         1 <0>         0.1358
     36 H10        -2.1087    3.3749    2.1842 H         1 <0>         0.1633
     37 H11        -3.8316    4.3925    3.5994 H         1 <0>         0.1359
     38 H12        -2.2724    0.1565    0.7655 H         1 <0>         0.2369
     39 H13         0.0809    0.4039   -0.2002 H         1 <0>         0.1301
     40 H14        -0.0391    0.5192   -2.7313 H         1 <0>         0.1149
     41 H15        -1.3058    1.8543   -2.6104 H         1 <0>         0.1255
     42 H16         0.3476    3.3089   -1.3514 H         1 <0>         0.1390
     43 H17         1.6143    1.9740   -1.4720 H         1 <0>         0.1148
     44 H18        -8.6298    4.4328    4.3048 H         1 <0>         0.2459
@<TRIPOS>BOND
     1    1    6 ar
     2    1    2 ar
     3    1   27 1
     4    2    3 ar
     5    2   28 1
     6    3    4 ar
     7    3   29 1
     8    4   10 1
     9    4    5 ar
    10    5    6 ar
    11    5    7 1
    12    6   30 1
    13    7    8 1
    14    7   11 1
    15    7   26 1
    16    8    9 2
    17    8   10 am
    18   10   31 1
    19   11   12 1
    20   11   32 1
    21   11   33 1
    22   12   13 2
    23   12   14 1
    24   14   19 ar
    25   14   15 ar
    26   15   16 ar
    27   15   34 1
    28   16   17 ar
    29   16   35 1
    30   17   18 ar
    31   17   20 1
    32   18   19 ar
    33   18   36 1
    34   19   37 1
    35   20   21 am
    36   20   38 1
    37   21   22 2
    38   21   23 1
    39   23   25 1
    40   23   24 1
    41   23   39 1
    42   24   25 1
    43   24   40 1
    44   24   41 1
    45   25   42 1
    46   25   43 1
    47   26   44 1
@<TRIPOS>MOLECULE
ZINC01059586
   44    47     0     0     0
SMALL
USER_CHARGES

@<TRIPOS>ATOM
      1 C1          1.0406    2.6054    0.3153 C.ar      1 <0>        -0.1617
      2 C2          0.8921    1.2337    0.2186 C.ar      1 <0>        -0.0863
      3 C3         -0.3628    0.6751    0.0928 C.ar      1 <0>        -0.1630
      4 C4         -1.4916    1.4916    0.0564 C.ar      1 <0>         0.0759
      5 C5         -1.3297    2.8673    0.1593 C.ar      1 <0>        -0.1315
      6 C6         -0.0761    3.4223    0.2852 C.ar      1 <0>        -0.0559
      7 C7         -2.7166    3.4647    0.0958 C.3       1 <0>         0.1192
      8 C8         -3.6270    2.2652   -0.0609 C.2       1 <0>         0.2909
      9 O1         -4.8362    2.2856   -0.1528 O.2       1 <0>        -0.2869
     10 N1         -2.8444    1.1730   -0.0679 N.am      1 <0>        -0.3134
     11 C9         -3.0311    4.2278    1.3840 C.3       1 <0>        -0.2149
     12 C10        -4.4590    4.7082    1.3474 C.2       1 <0>         0.2569
     13 O2         -5.1565    4.4643    0.3855 O.2       1 <0>        -0.2643
     14 C11        -5.0060    5.4717    2.4763 C.ar      1 <0>        -0.1785
     15 C12        -4.2042    5.7496    3.5905 C.ar      1 <0>        -0.0730
     16 C13        -4.7176    6.4668    4.6399 C.ar      1 <0>        -0.1802
     17 C14        -6.0371    6.9092    4.6041 C.ar      1 <0>         0.0960
     18 C15        -6.8392    6.6312    3.5008 C.ar      1 <0>        -0.1458
     19 C16        -6.3327    5.9192    2.4445 C.ar      1 <0>        -0.0440
     20 N2         -6.5563    7.6328    5.6755 N.am      1 <0>        -0.3245
     21 C17        -7.8542    7.4990    6.0131 C.2       1 <0>         0.3331
     22 O3         -8.5465    6.6795    5.4476 O.2       1 <0>        -0.3460
     23 C18        -8.4451    8.3678    7.0935 C.3       1 <0>        -0.2237
     24 C19        -8.8457    7.6896    8.4052 C.3       1 <0>        -0.1919
     25 C20        -9.9240    8.1678    7.4308 C.3       1 <0>        -0.1736
     26 O4         -2.8402    4.3238   -1.0394 O.3       1 <0>        -0.3249
     27 H1          2.0253    3.0378    0.4136 H         1 <0>         0.1357
     28 H2          1.7637    0.5963    0.2421 H         1 <0>         0.1351
     29 H3         -0.4705   -0.3969    0.0179 H         1 <0>         0.1338
     30 H4          0.0357    4.4939    0.3608 H         1 <0>         0.1376
     31 H5         -3.1811    0.2670   -0.1496 H         1 <0>         0.2447
     32 H6         -2.9031    3.6225    2.1697 H         1 <0>         0.1112
     33 H7         -2.3619    5.0837    1.4719 H         1 <0>         0.1219
     34 H8         -3.1819    5.4027    3.6212 H         1 <0>         0.1326
     35 H9         -4.0988    6.6851    5.4978 H         1 <0>         0.1325
     36 H10        -7.8622    6.9767    3.4771 H         1 <0>         0.1661
     37 H11        -6.9559    5.7034    1.5892 H         1 <0>         0.1599
     38 H12        -5.9837    8.2328    6.1784 H         1 <0>         0.2355
     39 H13        -8.0483    9.3813    7.1512 H         1 <0>         0.1295
     40 H14        -8.6818    6.6151    8.4867 H         1 <0>         0.1254
     41 H15        -8.7123    8.2570    9.3263 H         1 <0>         0.1143
     42 H16       -10.5001    9.0498    7.7108 H         1 <0>         0.1147
     43 H17       -10.4696    7.4081    6.8710 H         1 <0>         0.1399
     44 H18        -3.7111    4.7344   -1.1290 H         1 <0>         0.2416
@<TRIPOS>BOND
     1    1    6 ar
     2    1    2 ar
     3    1   27 1
     4    2    3 ar
     5    2   28 1
     6    3    4 ar
     7    3   29 1
     8    4   10 1
     9    4    5 ar
    10    5    6 ar
    11    5    7 1
    12    6   30 1
    13    7    8 1
    14    7   11 1
    15    7   26 1
    16    8    9 2
    17    8   10 am
    18   10   31 1
    19   11   12 1
    20   11   32 1
    21   11   33 1
    22   12   13 2
    23   12   14 1
    24   14   19 ar
    25   14   15 ar
    26   15   16 ar
    27   15   34 1
    28   16   17 ar
    29   16   35 1
    30   17   18 ar
    31   17   20 1
    32   18   19 ar
    33   18   36 1
    34   19   37 1
    35   20   21 am
    36   20   38 1
    37   21   22 2
    38   21   23 1
    39   23   25 1
    40   23   24 1
    41   23   39 1
    42   24   25 1
    43   24   40 1
    44   24   41 1
    45   25   42 1
    46   25   43 1
    47   26   44 1
@<TRIPOS>MOLECULE
ZINC01059884
   43    45     0     0     0
SMALL
USER_CHARGES

@<TRIPOS>ATOM
      1 C1         -1.0372   -3.1993    8.0639 C.3       1 <0>        -0.0644
      2 O1          0.1773   -3.1590    7.3121 O.3       1 <0>        -0.1975
      3 C2          0.2133   -2.3203    6.2412 C.ar      1 <0>         0.0591
      4 C3         -0.8969   -1.5548    5.9231 C.ar      1 <0>        -0.1710
      5 C4         -0.8600   -0.6988    4.8389 C.ar      1 <0>        -0.1224
      6 C5          0.2857   -0.6123    4.0593 C.ar      1 <0>         0.0590
      7 C6          1.3997   -1.3779    4.3753 C.ar      1 <0>        -0.2229
      8 C7          1.3650   -2.2317    5.4652 C.ar      1 <0>         0.0866
      9 O2          2.4553   -2.9823    5.7769 O.3       1 <0>        -0.1929
     10 C8          3.6026   -2.8400    4.9369 C.3       1 <0>        -0.0638
     11 N1          0.3193    0.2518    2.9571 N.am      1 <0>        -0.3273
     12 C9         -0.7996    0.4714    2.2386 C.2       1 <0>         0.2982
     13 O3         -1.8111   -0.1505    2.4861 O.2       1 <0>        -0.3101
     14 C10        -0.7940    1.4898    1.1277 C.3       1 <0>        -0.0368
     15 H1         -0.5275    2.4765    1.5064 H         1 <0>         0.1172
     16 C11         0.1578    1.0589   -0.0137 C.3       1 <0>        -0.1870
     17 C12        -0.5881    1.5048   -1.2570 C.2       1 <0>        -0.0719
     18 N2         -1.8132    1.7483   -0.9284 N.2       1 <0>         0.0390
     19 O4         -2.0690    1.5228    0.4438 O.3       1 <0>        -0.1517
     20 C13        -0.0131    1.6377   -2.6085 C.ar      1 <0>        -0.0620
     21 C14         1.3334    1.3419   -2.8309 C.ar      1 <0>        -0.0941
     22 C15         1.8649    1.4683   -4.0968 C.ar      1 <0>        -0.1429
     23 C16         1.0691    1.8875   -5.1496 C.ar      1 <0>        -0.0969
     24 C17        -0.2644    2.1832   -4.9427 C.ar      1 <0>        -0.1588
     25 C18        -0.8162    2.0560   -3.6777 C.ar      1 <0>         0.1133
     26 O5         -2.1279    2.3409   -3.4743 O.3       1 <0>        -0.2716
     27 H2         -1.8550   -3.5158    7.4165 H         1 <0>         0.0685
     28 H3         -0.9315   -3.9057    8.8873 H         1 <0>         0.1088
     29 H4         -1.2515   -2.2073    8.4615 H         1 <0>         0.0651
     30 H5         -1.7903   -1.6237    6.5259 H         1 <0>         0.1461
     31 H6         -1.7247   -0.0993    4.5953 H         1 <0>         0.1629
     32 H7          2.2925   -1.3080    3.7716 H         1 <0>         0.1373
     33 H8          4.3986   -3.4926    5.2955 H         1 <0>         0.1101
     34 H9          3.3409   -3.1140    3.9149 H         1 <0>         0.0657
     35 H10         3.9434   -1.8049    4.9597 H         1 <0>         0.0623
     36 H11         1.1479    0.6921    2.7111 H         1 <0>         0.2275
     37 H12         0.2980   -0.0220   -0.0133 H         1 <0>         0.1255
     38 H13         1.1162    1.5718    0.0674 H         1 <0>         0.1028
     39 H14         1.9576    1.0150   -2.0125 H         1 <0>         0.1323
     40 H15         2.9065    1.2397   -4.2680 H         1 <0>         0.1360
     41 H16         1.4932    1.9835   -6.1382 H         1 <0>         0.1367
     42 H17        -0.8790    2.5093   -5.7688 H         1 <0>         0.1474
     43 H18        -2.2987    3.2644   -3.2436 H         1 <0>         0.2387
@<TRIPOS>BOND
     1    1    2 1
     2    1   27 1
     3    1   28 1
     4    1   29 1
     5    2    3 1
     6    3    8 ar
     7    3    4 ar
     8    4    5 ar
     9    4   30 1
    10    5    6 ar
    11    5   31 1
    12    6    7 ar
    13    6   11 1
    14    7    8 ar
    15    7   32 1
    16    8    9 1
    17    9   10 1
    18   10   33 1
    19   10   34 1
    20   10   35 1
    21   11   12 am
    22   11   36 1
    23   12   13 2
    24   12   14 1
    25   14   15 1
    26   14   19 1
    27   14   16 1
    28   16   17 1
    29   16   37 1
    30   16   38 1
    31   17   18 2
    32   17   20 1
    33   18   19 1
    34   20   25 ar
    35   20   21 ar
    36   21   22 ar
    37   21   39 1
    38   22   23 ar
    39   22   40 1
    40   23   24 ar
    41   23   41 1
    42   24   25 ar
    43   24   42 1
    44   25   26 1
    45   26   43 1
@<TRIPOS>MOLECULE
ZINC01062292
   39    42     0     0     0
SMALL
USER_CHARGES

@<TRIPOS>ATOM
      1 C1         -0.0126    1.0758    0.0080 C.2       1 <0>        -0.2528
      2 C2          1.1858    1.7988    0.0004 C.2       1 <0>         0.0097
      3 N1          1.1631    3.1137    0.0081 N.2       1 <0>        -0.1161
      4 C3          0.0065    3.7777    0.0228 C.2       1 <0>         0.1127
      5 C4         -0.3012    5.1519    0.0335 C.2       1 <0>        -0.2959
      6 C5         -1.7039    5.2571    0.0474 C.2       1 <0>        -0.0578
      7 N2         -2.2149    4.0543    0.0453 N.2       1 <0>        -0.0990
      8 N3         -1.1842    3.1083    0.0302 N.pl3     1 <0>        -0.0664
      9 C6         -1.1936    1.7452    0.0172 C.2       1 <0>         0.0436
     10 C7          0.6569    6.2606    0.0304 C.2       1 <0>         0.3810
     11 O1          1.8524    6.0318    0.0174 O.2       1 <0>        -0.3280
     12 N4          0.2145    7.5336    0.0419 N.am      1 <0>        -0.2719
     13 C8          1.1204    8.5818    0.0389 C.2       1 <0>        -0.1281
     14 C9          0.8615    9.9456    0.0435 C.2       1 <0>        -0.2512
     15 C10         2.0026   10.8455    0.0436 C.2       1 <0>        -0.0617
     16 C11         3.2108   10.2423    0.0275 C.2       1 <0>        -0.3345
     17 S1          2.8514    8.5088    0.0210 S.3       1 <0>         0.5159
     18 C12         4.5525   10.9078    0.0172 C.3       1 <0>        -0.0716
     19 C13         4.3565   12.3858   -0.3503 C.3       1 <0>        -0.1564
     20 C14         3.2204   12.9595    0.5015 C.3       1 <0>        -0.1575
     21 C15         1.8839   12.3646    0.0545 C.3       1 <0>        -0.1026
     22 C16        -0.5115   10.4588    0.0520 C.2       1 <0>         0.3630
     23 O2         -1.0758   10.6698    1.1096 O.2       1 <0>        -0.3649
     24 N5         -1.1491   10.6969   -1.1113 N.am      1 <0>        -0.4308
     25 H1          0.0021   -0.0041    0.0020 H         1 <0>         0.1645
     26 H2          2.1308    1.2761   -0.0115 H         1 <0>         0.1814
     27 H3         -2.2656    6.1795    0.0583 H         1 <0>         0.1949
     28 H4         -2.1286    1.2047    0.0182 H         1 <0>         0.1815
     29 H5         -0.7381    7.7159    0.0522 H         1 <0>         0.2415
     30 H6          5.0075   10.8321    1.0048 H         1 <0>         0.0953
     31 H7          5.1949   10.4274   -0.7208 H         1 <0>         0.0906
     32 H8          5.2759   12.9366   -0.1518 H         1 <0>         0.0822
     33 H9          4.1016   12.4689   -1.4068 H         1 <0>         0.0856
     34 H10         3.3938   12.7140    1.5492 H         1 <0>         0.0911
     35 H11         3.1908   14.0427    0.3835 H         1 <0>         0.0802
     36 H12         1.0996   12.6648    0.7495 H         1 <0>         0.1024
     37 H13         1.6415   12.7215   -0.9464 H         1 <0>         0.0866
     38 H14        -0.6994   10.5288   -1.9541 H         1 <0>         0.2195
     39 H15        -2.0577   11.0365   -1.1056 H         1 <0>         0.2240
@<TRIPOS>BOND
     1    1    9 2
     2    1    2 1
     3    1   25 1
     4    2    3 2
     5    2   26 1
     6    3    4 1
     7    4    8 1
     8    4    5 2
     9    5    6 1
    10    5   10 1
    11    6    7 2
    12    6   27 1
    13    7    8 1
    14    8    9 1
    15    9   28 1
    16   10   11 2
    17   10   12 am
    18   12   13 1
    19   12   29 1
    20   13   17 1
    21   13   14 2
    22   14   15 1
    23   14   22 1
    24   15   21 1
    25   15   16 2
    26   16   17 1
    27   16   18 1
    28   18   19 1
    29   18   30 1
    30   18   31 1
    31   19   20 1
    32   19   32 1
    33   19   33 1
    34   20   21 1
    35   20   34 1
    36   20   35 1
    37   21   36 1
    38   21   37 1
    39   22   23 2
    40   22   24 am
    41   24   38 1
    42   24   39 1
@<TRIPOS>MOLECULE
ZINC01062654
   43    44     0     0     0
SMALL
USER_CHARGES

@<TRIPOS>ATOM
      1 C1          5.7126   11.9401   -1.0450 C.3       1 <0>        -0.2263
      2 C2          4.9846   12.2311    0.2689 C.3       1 <0>         0.0875
      3 C3          4.7366   13.7358    0.3921 C.3       1 <0>        -0.2194
      4 C4          5.8435   11.7579    1.4434 C.3       1 <0>        -0.2261
      5 N1          3.7028   11.5220    0.2845 N.am      1 <0>        -0.3822
      6 C5          3.6749   10.1780    0.1876 C.2       1 <0>         0.3503
      7 O1          4.7134    9.5542    0.0873 O.2       1 <0>        -0.3664
      8 C6          2.3812    9.4623    0.2032 C.ar      1 <0>        -0.1084
      9 C7          1.1870   10.1765    0.3183 C.ar      1 <0>        -0.1244
     10 C8         -0.0190    9.5062    0.3332 C.ar      1 <0>        -0.1198
     11 C9         -0.0503    8.1276    0.2348 C.ar      1 <0>        -0.1434
     12 C10         1.1327    7.4075    0.1203 C.ar      1 <0>         0.0559
     13 C11         2.3500    8.0712    0.1098 C.ar      1 <0>        -0.0676
     14 N2          1.0957    6.0127    0.0215 N.am      1 <0>        -0.3258
     15 C12         2.0185    5.3647   -0.7168 C.2       1 <0>         0.3463
     16 O2          2.8237    5.9955   -1.3736 O.2       1 <0>        -0.3398
     17 C13         2.0514    3.8868   -0.7278 C.ar      1 <0>        -0.1163
     18 C14         1.1278    3.1598    0.0257 C.ar      1 <0>        -0.1164
     19 C15         1.1618    1.7807    0.0134 C.ar      1 <0>        -0.1231
     20 C16         2.1084    1.1147   -0.7434 C.ar      1 <0>        -0.1301
     21 C17         3.0341    1.8290   -1.4916 C.ar      1 <0>         0.0637
     22 C18         3.0058    3.2136   -1.4907 C.ar      1 <0>        -0.0900
     23 O3          3.9655    1.1691   -2.2294 O.3       1 <0>        -0.2863
     24 H1          5.1007   12.2772   -1.8817 H         1 <0>         0.0728
     25 H2          6.6663   12.4677   -1.0565 H         1 <0>         0.0759
     26 H3          5.8893   10.8681   -1.1327 H         1 <0>         0.1173
     27 H4          4.2180   13.9431    1.3282 H         1 <0>         0.0757
     28 H5          5.6903   14.2634    0.3806 H         1 <0>         0.0904
     29 H6          4.1247   14.0729   -0.4446 H         1 <0>         0.0765
     30 H7          6.0202   10.6859    1.3557 H         1 <0>         0.1158
     31 H8          6.7972   12.2855    1.4319 H         1 <0>         0.0764
     32 H9          5.3249   11.9652    2.3795 H         1 <0>         0.0713
     33 H10         2.8741   12.0197    0.3645 H         1 <0>         0.2213
     34 H11         1.2072   11.2535    0.3961 H         1 <0>         0.1253
     35 H12        -0.9417   10.0605    0.4223 H         1 <0>         0.1335
     36 H13        -0.9973    7.6085    0.2474 H         1 <0>         0.1306
     37 H14         3.2708    7.5131    0.0253 H         1 <0>         0.1860
     38 H15         0.4059    5.5118    0.4844 H         1 <0>         0.2341
     39 H16         0.3870    3.6768    0.6175 H         1 <0>         0.1250
     40 H17         0.4471    1.2194    0.5969 H         1 <0>         0.1369
     41 H18         2.1304    0.0349   -0.7488 H         1 <0>         0.1436
     42 H19         3.7231    3.7705   -2.0753 H         1 <0>         0.1695
     43 H20         3.6832    0.9707   -3.1327 H         1 <0>         0.2304
@<TRIPOS>BOND
     1    1    2 1
     2    1   24 1
     3    1   25 1
     4    1   26 1
     5    2    3 1
     6    2    4 1
     7    2    5 1
     8    3   27 1
     9    3   28 1
    10    3   29 1
    11    4   30 1
    12    4   31 1
    13    4   32 1
    14    5    6 am
    15    5   33 1
    16    6    7 2
    17    6    8 1
    18    8   13 ar
    19    8    9 ar
    20    9   10 ar
    21    9   34 1
    22   10   11 ar
    23   10   35 1
    24   11   12 ar
    25   11   36 1
    26   12   13 ar
    27   12   14 1
    28   13   37 1
    29   14   15 am
    30   14   38 1
    31   15   16 2
    32   15   17 1
    33   17   22 ar
    34   17   18 ar
    35   18   19 ar
    36   18   39 1
    37   19   20 ar
    38   19   40 1
    39   20   21 ar
    40   20   41 1
    41   21   22 ar
    42   21   23 1
    43   22   42 1
    44   23   43 1
@<TRIPOS>MOLECULE
ZINC01063549
   45    47     0     0     0
SMALL
USER_CHARGES

@<TRIPOS>ATOM
      1 C1          4.3485    4.5061    8.1472 C.3       1 <0>        -0.1739
      2 C2          2.9261    4.0329    8.3014 C.ar      1 <0>        -0.0657
      3 C3          2.4384    3.7108    9.5546 C.ar      1 <0>        -0.1312
      4 C4          1.1344    3.2761    9.7024 C.ar      1 <0>        -0.1329
      5 C5          0.3102    3.1676    8.5941 C.ar      1 <0>         0.0281
      6 C6          0.8024    3.4868    7.3304 C.ar      1 <0>         0.0410
      7 C7          2.1122    3.9223    7.1901 C.ar      1 <0>        -0.1159
      8 N1         -0.0244    3.3739    6.2057 N.am      1 <0>        -0.3184
      9 C8          0.4966    2.9960    5.0216 C.2       1 <0>         0.3469
     10 O1          1.6960    2.8319    4.9098 O.2       1 <0>        -0.3531
     11 C9         -0.3903    2.7810    3.8587 C.ar      1 <0>        -0.1527
     12 C10        -1.7680    2.9691    3.9836 C.ar      1 <0>        -0.0545
     13 C11        -2.5899    2.7673    2.8944 C.ar      1 <0>        -0.1586
     14 C12        -2.0511    2.3847    1.6785 C.ar      1 <0>        -0.0050
     15 C13        -0.6874    2.1912    1.5495 C.ar      1 <0>        -0.7699
     16 C14         0.1460    2.3897    2.6311 C.ar      1 <0>         0.0330
     17 S1         -0.0125    1.6971   -0.0013 S.o2      1 <0>         2.7793
     18 O2          1.3449    2.1176   -0.0060 O.2       1 <0>        -0.9037
     19 O3         -0.9402    2.1062   -0.9968 O.2       1 <0>        -0.9118
     20 N2          0.0049    0.0413   -0.0224 N.pl3     1 <0>        -0.8502
     21 C15         1.1126   -0.8099    0.4360 C.3       1 <0>         0.0007
     22 C16         0.6906   -2.2759    0.2033 C.3       1 <0>        -0.1708
     23 C17        -0.3923   -2.1525   -0.9009 C.3       1 <0>        -0.1690
     24 C18        -1.0851   -0.8233   -0.5100 C.3       1 <0>        -0.0050
     25 O4         -0.9743    2.7455    8.7385 O.3       1 <0>        -0.2959
     26 H1          4.3824    5.5916    8.2398 H         1 <0>         0.0869
     27 H2          4.9674    4.0558    8.9233 H         1 <0>         0.0810
     28 H3          4.7247    4.2131    7.1670 H         1 <0>         0.0902
     29 H4          3.0781    3.7987   10.4203 H         1 <0>         0.1339
     30 H5          0.7567    3.0254   10.6827 H         1 <0>         0.1411
     31 H6          2.4955    4.1752    6.2126 H         1 <0>         0.1710
     32 H7         -0.9720    3.5677    6.2789 H         1 <0>         0.2413
     33 H8         -2.1892    3.2722    4.9307 H         1 <0>         0.1320
     34 H9         -3.6559    2.9124    2.9896 H         1 <0>         0.1415
     35 H10        -2.6985    2.2326    0.8276 H         1 <0>         0.1531
     36 H11         1.2109    2.2422    2.5280 H         1 <0>         0.1759
     37 H12         2.0132   -0.5862   -0.1358 H         1 <0>         0.0973
     38 H13         1.2939   -0.6424    1.4977 H         1 <0>         0.0790
     39 H14         0.2687   -2.7082    1.1106 H         1 <0>         0.0912
     40 H15         1.5358   -2.8667   -0.1497 H         1 <0>         0.0964
     41 H16        -1.0930   -2.9863   -0.8559 H         1 <0>         0.0939
     42 H17         0.0632   -2.0800   -1.8885 H         1 <0>         0.0991
     43 H18        -1.8159   -0.9945    0.2804 H         1 <0>         0.0749
     44 H19        -1.5644   -0.3750   -1.3803 H         1 <0>         0.1049
     45 H20        -1.0833    1.7871    8.6713 H         1 <0>         0.2245
@<TRIPOS>BOND
     1    1    2 1
     2    1   26 1
     3    1   27 1
     4    1   28 1
     5    2    7 ar
     6    2    3 ar
     7    3    4 ar
     8    3   29 1
     9    4    5 ar
    10    4   30 1
    11    5    6 ar
    12    5   25 1
    13    6    7 ar
    14    6    8 1
    15    7   31 1
    16    8    9 am
    17    8   32 1
    18    9   10 2
    19    9   11 1
    20   11   16 ar
    21   11   12 ar
    22   12   13 ar
    23   12   33 1
    24   13   14 ar
    25   13   34 1
    26   14   15 ar
    27   14   35 1
    28   15   16 ar
    29   15   17 1
    30   16   36 1
    31   17   18 2
    32   17   19 2
    33   17   20 1
    34   20   24 1
    35   20   21 1
    36   21   22 1
    37   21   37 1
    38   21   38 1
    39   22   23 1
    40   22   39 1
    41   22   40 1
    42   23   24 1
    43   23   41 1
    44   23   42 1
    45   24   43 1
    46   24   44 1
    47   25   45 1
@<TRIPOS>MOLECULE
ZINC01063649
   41    42     0     0     0
SMALL
USER_CHARGES

@<TRIPOS>ATOM
      1 C1         -0.3596   -3.0951   -3.8871 C.3       1 <0>        -0.0642
      2 O1          0.0489   -2.4567   -2.6757 O.3       1 <0>        -0.2072
      3 C2          0.0877   -3.2255   -1.5558 C.ar      1 <0>         0.1075
      4 C3         -0.2599   -4.5672   -1.6216 C.ar      1 <0>        -0.2235
      5 C4         -0.2193   -5.3466   -0.4820 C.ar      1 <0>        -0.0806
      6 C5          0.1675   -4.7909    0.7238 C.ar      1 <0>        -0.1695
      7 C6          0.5194   -3.4556    0.7909 C.ar      1 <0>        -0.0756
      8 C7          0.4753   -2.6705   -0.3451 C.ar      1 <0>        -0.1436
      9 C8          0.8541   -1.2138   -0.2702 C.3       1 <0>         0.0471
     10 N1         -0.3600   -0.3958   -0.2144 N.am      1 <0>        -0.3797
     11 C9         -0.2654    0.9467   -0.1429 C.2       1 <0>         0.3431
     12 O2          0.8277    1.4791   -0.1247 O.2       1 <0>        -0.3677
     13 C10        -1.4880    1.7707   -0.0929 C.ar      1 <0>        -0.1179
     14 C11        -2.7455    1.1609   -0.1254 C.ar      1 <0>        -0.1046
     15 C12        -3.8841    1.9319   -0.0728 C.ar      1 <0>        -0.1485
     16 C13        -3.7847    3.3186    0.0006 C.ar      1 <0>         0.0499
     17 C14        -2.5338    3.9293    0.0273 C.ar      1 <0>        -0.1185
     18 C15        -1.3915    3.1634   -0.0187 C.ar      1 <0>        -0.0624
     19 N2         -4.9370    4.0953    0.0477 N.pl3     1 <0>        -0.8269
     20 S1         -5.4251    4.9349   -1.2936 S.o2      1 <0>         2.6790
     21 O3         -6.6094    5.6079   -0.8891 O.2       1 <0>        -0.9062
     22 O4         -4.2777    5.6685   -1.6995 O.2       1 <0>        -0.8989
     23 C16        -5.8194    3.6609   -2.5232 C.3       1 <0>        -0.8255
     24 H1         -0.3467   -2.3710   -4.7017 H         1 <0>         0.1120
     25 H2          0.3249   -3.9118   -4.1162 H         1 <0>         0.0709
     26 H3         -1.3687   -3.4895   -3.7676 H         1 <0>         0.0667
     27 H4         -0.5617   -5.0018   -2.5631 H         1 <0>         0.1374
     28 H5         -0.4894   -6.3911   -0.5328 H         1 <0>         0.1324
     29 H6          0.1987   -5.4020    1.6137 H         1 <0>         0.1342
     30 H7          0.8251   -3.0249    1.7329 H         1 <0>         0.1398
     31 H8          1.4341   -0.9433   -1.1525 H         1 <0>         0.1116
     32 H9          1.4512   -1.0392    0.6248 H         1 <0>         0.0961
     33 H10        -1.2320   -0.8204   -0.2290 H         1 <0>         0.2250
     34 H11        -2.8233    0.0854   -0.1868 H         1 <0>         0.1313
     35 H12        -4.8558    1.4611   -0.0930 H         1 <0>         0.1352
     36 H13        -2.4600    5.0052    0.0846 H         1 <0>         0.1629
     37 H14        -0.4215    3.6377    0.0028 H         1 <0>         0.1657
     38 H15        -5.4551    4.1453    0.8663 H         1 <0>         0.2566
     39 H16        -6.6699    3.0732   -2.1776 H         1 <0>         0.1345
     40 H17        -6.0678    4.1363   -3.4721 H         1 <0>         0.1429
     41 H18        -4.9574    3.0076   -2.6588 H         1 <0>         0.1390
@<TRIPOS>BOND
     1    1    2 1
     2    1   24 1
     3    1   25 1
     4    1   26 1
     5    2    3 1
     6    3    8 ar
     7    3    4 ar
     8    4    5 ar
     9    4   27 1
    10    5    6 ar
    11    5   28 1
    12    6    7 ar
    13    6   29 1
    14    7    8 ar
    15    7   30 1
    16    8    9 1
    17    9   10 1
    18    9   31 1
    19    9   32 1
    20   10   11 am
    21   10   33 1
    22   11   12 2
    23   11   13 1
    24   13   18 ar
    25   13   14 ar
    26   14   15 ar
    27   14   34 1
    28   15   16 ar
    29   15   35 1
    30   16   17 ar
    31   16   19 1
    32   17   18 ar
    33   17   36 1
    34   18   37 1
    35   19   20 1
    36   19   38 1
    37   20   21 2
    38   20   22 2
    39   20   23 1
    40   23   39 1
    41   23   40 1
    42   23   41 1
@<TRIPOS>MOLECULE
ZINC01066689
   40    42     0     0     0
SMALL
USER_CHARGES

@<TRIPOS>ATOM
      1 C1         -1.2346   -4.0020    0.1616 C.3       1 <0>        -0.1735
      2 C2         -0.5920   -2.6418    0.0721 C.ar      1 <0>        -0.0669
      3 C3          0.0072   -2.0873    1.1882 C.ar      1 <0>        -0.1311
      4 C4          0.5978   -0.8397    1.1124 C.ar      1 <0>        -0.1333
      5 C5          0.5907   -0.1411   -0.0841 C.ar      1 <0>         0.0301
      6 C6         -0.0173   -0.6968   -1.2074 C.ar      1 <0>         0.0403
      7 C7         -0.6034   -1.9515   -1.1250 C.ar      1 <0>        -0.1162
      8 N1         -0.0326    0.0076   -2.4186 N.am      1 <0>        -0.3195
      9 C8          0.0615   -0.6583   -3.5866 C.2       1 <0>         0.3075
     10 O1          0.0780   -1.8711   -3.5937 O.2       1 <0>        -0.3610
     11 C9          0.1462    0.1040   -4.8839 C.3       1 <0>        -0.2118
     12 C10         0.2443   -0.8823   -6.0495 C.3       1 <0>         0.0095
     13 N2          0.3267   -0.1412   -7.3105 N.am      1 <0>        -0.3248
     14 C11        -0.7364    0.2241   -8.0495 C.2       1 <0>         0.3576
     15 O2         -1.8986   -0.0040   -7.7808 O.2       1 <0>        -0.2988
     16 C12        -0.2534    0.9524   -9.2417 C.ar      1 <0>        -0.1341
     17 C13        -0.8730    1.5507  -10.3271 C.ar      1 <0>        -0.0598
     18 C14        -0.1051    2.1640  -11.3046 C.ar      1 <0>        -0.1136
     19 C15         1.2733    2.1826  -11.2037 C.ar      1 <0>        -0.1137
     20 C16         1.9069    1.5883  -10.1236 C.ar      1 <0>        -0.0598
     21 C17         1.1522    0.9715   -9.1387 C.ar      1 <0>        -0.1343
     22 C18         1.4756    0.2584   -7.8850 C.2       1 <0>         0.3577
     23 O3          2.5917    0.0656   -7.4468 O.2       1 <0>        -0.2992
     24 O4          1.1708    1.0863   -0.1601 O.3       1 <0>        -0.2953
     25 H1         -2.2815   -3.8914    0.4441 H         1 <0>         0.0863
     26 H2         -1.1700   -4.4987   -0.8065 H         1 <0>         0.0892
     27 H3         -0.7169   -4.5997    0.9118 H         1 <0>         0.0810
     28 H4          0.0134   -2.6303    2.1218 H         1 <0>         0.1335
     29 H5          1.0646   -0.4094    1.9861 H         1 <0>         0.1410
     30 H6         -1.0720   -2.3869   -1.9951 H         1 <0>         0.1691
     31 H7         -0.1110    0.9744   -2.4165 H         1 <0>         0.2428
     32 H8         -0.7457    0.7192   -5.0026 H         1 <0>         0.1150
     33 H9          1.0294    0.7427   -4.8730 H         1 <0>         0.1151
     34 H10         1.1362   -1.4975   -5.9307 H         1 <0>         0.1297
     35 H11        -0.6389   -1.5210   -6.0603 H         1 <0>         0.1290
     36 H12        -1.9497    1.5388  -10.4114 H         1 <0>         0.1512
     37 H13        -0.5872    2.6302  -12.1512 H         1 <0>         0.1424
     38 H14         1.8608    2.6633  -11.9720 H         1 <0>         0.1423
     39 H15         2.9842    1.6062  -10.0497 H         1 <0>         0.1510
     40 H16         2.1057    1.0649   -0.4065 H         1 <0>         0.2258
@<TRIPOS>BOND
     1    1    2 1
     2    1   25 1
     3    1   26 1
     4    1   27 1
     5    2    7 ar
     6    2    3 ar
     7    3    4 ar
     8    3   28 1
     9    4    5 ar
    10    4   29 1
    11    5    6 ar
    12    5   24 1
    13    6    7 ar
    14    6    8 1
    15    7   30 1
    16    8    9 am
    17    8   31 1
    18    9   10 2
    19    9   11 1
    20   11   12 1
    21   11   32 1
    22   11   33 1
    23   12   13 1
    24   12   34 1
    25   12   35 1
    26   13   22 am
    27   13   14 am
    28   14   15 2
    29   14   16 1
    30   16   21 ar
    31   16   17 ar
    32   17   18 ar
    33   17   36 1
    34   18   19 ar
    35   18   37 1
    36   19   20 ar
    37   19   38 1
    38   20   21 ar
    39   20   39 1
    40   21   22 1
    41   22   23 2
    42   24   40 1
@<TRIPOS>MOLECULE
ZINC01067715
   40    42     0     0     0
SMALL
USER_CHARGES

@<TRIPOS>ATOM
      1 C1         -3.6640   -4.5872   -0.0069 C.3       1 <0>        -0.1751
      2 C2         -3.3637   -3.1104   -0.0002 C.ar      1 <0>        -0.0750
      3 C3         -2.4749   -2.5838   -0.9199 C.ar      1 <0>        -0.1257
      4 C4         -2.1958   -1.2321   -0.9180 C.ar      1 <0>        -0.1237
      5 C5         -2.8113   -0.3977    0.0128 C.ar      1 <0>        -0.0134
      6 C6         -3.7015   -0.9344    0.9407 C.ar      1 <0>        -0.1161
      7 C7         -3.9775   -2.2867    0.9260 C.ar      1 <0>        -0.1250
      8 C8         -2.5153    1.0565    0.0197 C.2       1 <0>        -0.1942
      9 C9         -3.4323    2.0663    0.0295 C.2       1 <0>        -0.0325
     10 N1         -2.7576    3.2334    0.0327 N.pl3     1 <0>        -0.6170
     11 N2         -1.3866    2.9499    0.0304 N.2       1 <0>        -0.1167
     12 C10        -1.2312    1.6484    0.0168 C.2       1 <0>         0.1198
     13 N3         -0.0111    0.9658    0.0074 N.pl3     1 <0>        -0.3933
     14 S1         -3.4349    4.7445    0.0446 S.o2      1 <0>         2.7727
     15 O1         -2.4674    5.6276   -0.5062 O.2       1 <0>        -0.8708
     16 O2         -4.7402    4.6088   -0.5004 O.2       1 <0>        -0.8999
     17 C11        -3.6394    5.2104    1.7315 C.ar      1 <0>        -0.7680
     18 C12        -4.8143    4.9085    2.3944 C.ar      1 <0>        -0.0254
     19 C13        -4.9732    5.2706    3.7190 C.ar      1 <0>        -0.1532
     20 C14        -3.9605    5.9418    4.3783 C.ar      1 <0>        -0.0141
     21 C15        -2.7876    6.2484    3.7139 C.ar      1 <0>        -0.1527
     22 C16        -2.6272    5.8829    2.3905 C.ar      1 <0>        -0.0099
     23 C17        -4.1352    6.3399    5.8213 C.3       1 <0>        -0.1848
     24 H1         -2.9621   -5.1037    0.6478 H         1 <0>         0.0862
     25 H2         -4.6812   -4.7527    0.3480 H         1 <0>         0.0824
     26 H3         -3.5658   -4.9733   -1.0215 H         1 <0>         0.0825
     27 H4         -1.9981   -3.2315   -1.6407 H         1 <0>         0.1317
     28 H5         -1.5014   -0.8220   -1.6363 H         1 <0>         0.1352
     29 H6         -4.1776   -0.2929    1.6674 H         1 <0>         0.1315
     30 H7         -4.6710   -2.7030    1.6417 H         1 <0>         0.1315
     31 H8         -4.5062    1.9515    0.0340 H         1 <0>         0.1921
     32 H9          0.0021   -0.0041    0.0020 H         1 <0>         0.2369
     33 H10         0.8223    1.4622    0.0021 H         1 <0>         0.2327
     34 H11        -5.6069    4.3871    1.8783 H         1 <0>         0.1460
     35 H12        -5.8897    5.0315    4.2380 H         1 <0>         0.1376
     36 H13        -1.9966    6.7731    4.2290 H         1 <0>         0.1395
     37 H14        -1.7109    6.1223    1.8714 H         1 <0>         0.1577
     38 H15        -4.5799    7.3337    5.8728 H         1 <0>         0.0955
     39 H16        -4.7883    5.6233    6.3193 H         1 <0>         0.0869
     40 H17        -3.1637    6.3505    6.3154 H         1 <0>         0.0880
@<TRIPOS>BOND
     1    1    2 1
     2    1   24 1
     3    1   25 1
     4    1   26 1
     5    2    7 ar
     6    2    3 ar
     7    3    4 ar
     8    3   27 1
     9    4    5 ar
    10    4   28 1
    11    5    6 ar
    12    5    8 1
    13    6    7 ar
    14    6   29 1
    15    7   30 1
    16    8   12 1
    17    8    9 2
    18    9   10 1
    19    9   31 1
    20   10   11 1
    21   10   14 1
    22   11   12 2
    23   12   13 1
    24   13   32 1
    25   13   33 1
    26   14   15 2
    27   14   16 2
    28   14   17 1
    29   17   22 ar
    30   17   18 ar
    31   18   19 ar
    32   18   34 1
    33   19   20 ar
    34   19   35 1
    35   20   21 ar
    36   20   23 1
    37   21   22 ar
    38   21   36 1
    39   22   37 1
    40   23   38 1
    41   23   39 1
    42   23   40 1
@<TRIPOS>MOLECULE
ZINC01069513
   40    42     0     0     0
SMALL
USER_CHARGES

@<TRIPOS>ATOM
      1 C1          5.4569    0.7844   -5.8091 C.3       1 <0>        -0.1850
      2 C2          5.0252    0.7762   -4.3653 C.ar      1 <0>        -0.0134
      3 C3          4.8229    1.9696   -3.6976 C.ar      1 <0>        -0.1525
      4 C4          4.4265    1.9621   -2.3734 C.ar      1 <0>        -0.0247
      5 C5          4.2318    0.7612   -1.7169 C.ar      1 <0>        -0.7683
      6 C6          4.4392   -0.4321   -2.3831 C.ar      1 <0>        -0.0102
      7 C7          4.8318   -0.4247   -3.7085 C.ar      1 <0>        -0.1527
      8 S1          3.7265    0.7517   -0.0290 S.o2      1 <0>         2.7720
      9 O1          4.1339    1.9956    0.5240 O.2       1 <0>        -0.9000
     10 O2          4.1414   -0.4950    0.5121 O.2       1 <0>        -0.8696
     11 N1          2.0705    0.7466   -0.0137 N.pl3     1 <0>        -0.6159
     12 C8          1.2779    1.8374   -0.0003 C.2       1 <0>        -0.0299
     13 C9         -0.0171    1.4096    0.0098 C.2       1 <0>        -0.1975
     14 C10         0.0021   -0.0041    0.0020 C.2       1 <0>         0.1199
     15 N2          1.2545   -0.3910   -0.0120 N.2       1 <0>        -0.1142
     16 N3         -1.1174   -0.8418    0.0082 N.pl3     1 <0>        -0.3932
     17 C11        -1.2258    2.2708    0.0204 C.ar      1 <0>        -0.0187
     18 C12        -1.3429    3.2991    0.9535 C.ar      1 <0>        -0.1001
     19 C13        -2.4655    4.1013    0.9558 C.ar      1 <0>        -0.1589
     20 C14        -3.4808    3.8781    0.0399 C.ar      1 <0>         0.0944
     21 C15        -3.3713    2.8533   -0.8853 C.ar      1 <0>        -0.1095
     22 C16        -2.2491    2.0499   -0.8987 C.ar      1 <0>        -0.1071
     23 C17        -4.4789    2.6153   -1.8791 C.3       1 <0>        -0.1737
     24 F1         -4.5811    4.6621    0.0496 F         1 <0>        -0.1051
     25 H1          6.5455    0.7885   -5.8628 H         1 <0>         0.0958
     26 H2          5.0718   -0.1047   -6.3085 H         1 <0>         0.0881
     27 H3          5.0655    1.6752   -6.3004 H         1 <0>         0.0874
     28 H4          4.9743    2.9078   -4.2107 H         1 <0>         0.1383
     29 H5          4.2685    2.8945   -1.8517 H         1 <0>         0.1461
     30 H6          4.2914   -1.3703   -1.8690 H         1 <0>         0.1576
     31 H7          4.9902   -1.3570   -4.2300 H         1 <0>         0.1397
     32 H8          1.6091    2.8654    0.0021 H         1 <0>         0.1924
     33 H9         -2.0090   -0.4598    0.0188 H         1 <0>         0.2365
     34 H10        -1.0025   -1.8049    0.0019 H         1 <0>         0.2339
     35 H11        -0.5540    3.4710    1.6708 H         1 <0>         0.1424
     36 H12        -2.5551    4.9014    1.6758 H         1 <0>         0.1473
     37 H13        -2.1641    1.2515   -1.6210 H         1 <0>         0.1413
     38 H14        -5.1994    1.9134   -1.4591 H         1 <0>         0.0891
     39 H15        -4.9775    3.5589   -2.1004 H         1 <0>         0.0943
     40 H16        -4.0609    2.2013   -2.7968 H         1 <0>         0.0839
@<TRIPOS>BOND
     1    1    2 1
     2    1   25 1
     3    1   26 1
     4    1   27 1
     5    2    7 ar
     6    2    3 ar
     7    3    4 ar
     8    3   28 1
     9    4    5 ar
    10    4   29 1
    11    5    6 ar
    12    5    8 1
    13    6    7 ar
    14    6   30 1
    15    7   31 1
    16    8    9 2
    17    8   10 2
    18    8   11 1
    19   11   15 1
    20   11   12 1
    21   12   13 2
    22   12   32 1
    23   13   14 1
    24   13   17 1
    25   14   15 2
    26   14   16 1
    27   16   33 1
    28   16   34 1
    29   17   22 ar
    30   17   18 ar
    31   18   19 ar
    32   18   35 1
    33   19   20 ar
    34   19   36 1
    35   20   21 ar
    36   20   24 1
    37   21   22 ar
    38   21   23 1
    39   22   37 1
    40   23   38 1
    41   23   39 1
    42   23   40 1
@<TRIPOS>MOLECULE
ZINC01069617
   41    43     0     0     0
SMALL
USER_CHARGES

@<TRIPOS>ATOM
      1 C1         -3.6640   -4.5872   -0.0069 C.3       1 <0>        -0.1751
      2 C2         -3.3637   -3.1104   -0.0002 C.ar      1 <0>        -0.0751
      3 C3         -2.4749   -2.5838   -0.9199 C.ar      1 <0>        -0.1256
      4 C4         -2.1958   -1.2321   -0.9180 C.ar      1 <0>        -0.1236
      5 C5         -2.8113   -0.3977    0.0128 C.ar      1 <0>        -0.0131
      6 C6         -3.7015   -0.9344    0.9407 C.ar      1 <0>        -0.1164
      7 C7         -3.9775   -2.2867    0.9260 C.ar      1 <0>        -0.1251
      8 C8         -2.5153    1.0565    0.0197 C.2       1 <0>        -0.1945
      9 C9         -3.4323    2.0663    0.0295 C.2       1 <0>        -0.0330
     10 N1         -2.7576    3.2334    0.0327 N.pl3     1 <0>        -0.6169
     11 N2         -1.3866    2.9499    0.0304 N.2       1 <0>        -0.1164
     12 C10        -1.2312    1.6484    0.0168 C.2       1 <0>         0.1197
     13 N3         -0.0111    0.9658    0.0074 N.pl3     1 <0>        -0.3934
     14 S1         -3.4349    4.7445    0.0446 S.o2      1 <0>         2.7758
     15 O1         -2.4674    5.6276   -0.5062 O.2       1 <0>        -0.8718
     16 O2         -4.7402    4.6088   -0.5004 O.2       1 <0>        -0.9020
     17 C11        -3.6394    5.2104    1.7315 C.ar      1 <0>        -0.8021
     18 C12        -4.8150    4.9079    2.3934 C.ar      1 <0>         0.0105
     19 C13        -4.9756    5.2671    3.7177 C.ar      1 <0>        -0.2459
     20 C14        -3.9605    5.9420    4.3801 C.ar      1 <0>         0.1529
     21 C15        -2.7841    6.2494    3.7121 C.ar      1 <0>        -0.1817
     22 C16        -2.6262    5.8830    2.3895 C.ar      1 <0>         0.0198
     23 O3         -4.1181    6.3009    5.6813 O.3       1 <0>        -0.2047
     24 C17        -5.3553    5.9517    6.3054 C.3       1 <0>        -0.0661
     25 H1         -2.9621   -5.1037    0.6478 H         1 <0>         0.0862
     26 H2         -4.6812   -4.7527    0.3480 H         1 <0>         0.0822
     27 H3         -3.5658   -4.9733   -1.0215 H         1 <0>         0.0826
     28 H4         -1.9981   -3.2315   -1.6407 H         1 <0>         0.1318
     29 H5         -1.5014   -0.8220   -1.6363 H         1 <0>         0.1354
     30 H6         -4.1776   -0.2929    1.6674 H         1 <0>         0.1310
     31 H7         -4.6710   -2.7030    1.6417 H         1 <0>         0.1313
     32 H8         -4.5062    1.9515    0.0340 H         1 <0>         0.1915
     33 H9          0.0021   -0.0041    0.0020 H         1 <0>         0.2368
     34 H10         0.8223    1.4622    0.0021 H         1 <0>         0.2329
     35 H11        -5.6067    4.3864    1.8760 H         1 <0>         0.1468
     36 H12        -5.8924    5.0267    4.2355 H         1 <0>         0.1416
     37 H13        -1.9923    6.7744    4.2257 H         1 <0>         0.1527
     38 H14        -1.7105    6.1217    1.8691 H         1 <0>         0.1622
     39 H15        -5.3503    6.2956    7.3397 H         1 <0>         0.1139
     40 H16        -6.1786    6.4241    5.7695 H         1 <0>         0.0732
     41 H17        -5.4807    4.8692    6.2830 H         1 <0>         0.0715
@<TRIPOS>BOND
     1    1    2 1
     2    1   25 1
     3    1   26 1
     4    1   27 1
     5    2    7 ar
     6    2    3 ar
     7    3    4 ar
     8    3   28 1
     9    4    5 ar
    10    4   29 1
    11    5    6 ar
    12    5    8 1
    13    6    7 ar
    14    6   30 1
    15    7   31 1
    16    8   12 1
    17    8    9 2
    18    9   10 1
    19    9   32 1
    20   10   11 1
    21   10   14 1
    22   11   12 2
    23   12   13 1
    24   13   33 1
    25   13   34 1
    26   14   15 2
    27   14   16 2
    28   14   17 1
    29   17   22 ar
    30   17   18 ar
    31   18   19 ar
    32   18   35 1
    33   19   20 ar
    34   19   36 1
    35   20   21 ar
    36   20   23 1
    37   21   22 ar
    38   21   37 1
    39   22   38 1
    40   23   24 1
    41   24   39 1
    42   24   40 1
    43   24   41 1
@<TRIPOS>MOLECULE
ZINC01076219
   41    43     0     0     0
SMALL
USER_CHARGES

@<TRIPOS>ATOM
      1 C1         -0.0167    1.3781    0.0096 C.ar      1 <0>        -0.1366
      2 C2          0.0021   -0.0041    0.0020 C.ar      1 <0>        -0.0285
      3 C3          1.2084   -0.6789   -0.0132 C.ar      1 <0>        -0.7561
      4 C4          2.3961    0.0285   -0.0212 C.ar      1 <0>        -0.0286
      5 C5          2.3773    1.4107   -0.0145 C.ar      1 <0>        -0.1366
      6 C6          1.1709    2.0855    0.0021 C.ar      1 <0>        -0.0539
      7 C7          1.1505    3.5924    0.0099 C.3       1 <0>         0.0309
      8 N1          1.1568    4.0736    1.3936 N.am      1 <0>        -0.3864
      9 C8          1.1412    5.3973    1.6467 C.2       1 <0>         0.3956
     10 O1          1.1218    6.1928    0.7259 O.2       1 <0>        -0.3663
     11 C9          1.1475    5.8789    3.0312 C.2       1 <0>        -0.3648
     12 C10         1.1397    7.1926    3.4973 C.2       1 <0>        -0.0200
     13 C11         1.1456    7.3638    4.8782 C.2       1 <0>        -0.1306
     14 C12         1.1684    6.2426    5.6657 C.2       1 <0>        -0.3263
     15 S1          1.1750    4.9332    4.5381 S.3       1 <0>         0.3908
     16 C13         1.1341    8.7426    5.5360 C.3       1 <0>        -0.1006
     17 C14         1.5430    9.7896    4.5008 C.3       1 <0>        -0.1615
     18 C15         0.6765    9.6222    3.2496 C.3       1 <0>        -0.1637
     19 C16         1.1085    8.3552    2.5112 C.3       1 <0>        -0.1066
     20 S2          1.2323   -2.4407   -0.0217 S.o2      1 <0>         2.7613
     21 O2          2.4885   -2.8324    0.5148 O.2       1 <0>        -0.9150
     22 O3         -0.0018   -2.8663    0.5395 O.2       1 <0>        -0.9150
     23 N2          1.2232   -2.9228   -1.6059 N.pl3     1 <0>        -0.9306
     24 H1         -0.9592    1.9054    0.0170 H         1 <0>         0.1445
     25 H2         -0.9258   -0.5567    0.0083 H         1 <0>         0.1563
     26 H3          3.3386   -0.4987   -0.0324 H         1 <0>         0.1563
     27 H4          3.3052    1.9634   -0.0201 H         1 <0>         0.1446
     28 H5          2.0306    3.9704   -0.5103 H         1 <0>         0.1039
     29 H6          0.2509    3.9462   -0.4937 H         1 <0>         0.1037
     30 H7          1.1723    3.4396    2.1276 H         1 <0>         0.2303
     31 H8          1.1796    6.1894    6.7443 H         1 <0>         0.1889
     32 H9          0.1316    8.9637    5.9023 H         1 <0>         0.0922
     33 H10         1.8392    8.7563    6.3670 H         1 <0>         0.0884
     34 H11         1.3970   10.7875    4.9144 H         1 <0>         0.0813
     35 H12         2.5924    9.6534    4.2396 H         1 <0>         0.0879
     36 H13        -0.3706    9.5361    3.5400 H         1 <0>         0.0854
     37 H14         0.8046   10.4871    2.5988 H         1 <0>         0.0848
     38 H15         0.4003    8.1397    1.7111 H         1 <0>         0.1205
     39 H16         2.1030    8.4999    2.0893 H         1 <0>         0.1049
     40 H17         1.2072   -2.2605   -2.3144 H         1 <0>         0.2303
     41 H18         1.2339   -3.8676   -1.8254 H         1 <0>         0.2450
@<TRIPOS>BOND
     1    1    6 ar
     2    1    2 ar
     3    1   24 1
     4    2    3 ar
     5    2   25 1
     6    3    4 ar
     7    3   20 1
     8    4    5 ar
     9    4   26 1
    10    5    6 ar
    11    5   27 1
    12    6    7 1
    13    7    8 1
    14    7   28 1
    15    7   29 1
    16    8    9 am
    17    8   30 1
    18    9   10 2
    19    9   11 1
    20   11   15 1
    21   11   12 2
    22   12   19 1
    23   12   13 1
    24   13   14 2
    25   13   16 1
    26   14   15 1
    27   14   31 1
    28   16   17 1
    29   16   32 1
    30   16   33 1
    31   17   18 1
    32   17   34 1
    33   17   35 1
    34   18   19 1
    35   18   36 1
    36   18   37 1
    37   19   38 1
    38   19   39 1
    39   20   21 2
    40   20   22 2
    41   20   23 1
    42   23   40 1
    43   23   41 1
@<TRIPOS>MOLECULE
ZINC01078715
   41    43     0     0     0
SMALL
USER_CHARGES

@<TRIPOS>ATOM
      1 C1         -5.6404   -2.2053    9.5186 C.3       1 <0>        -0.2118
      2 C2         -4.8803   -1.6549    8.3102 C.3       1 <0>        -0.0160
      3 O1         -3.8285   -2.5560    7.9583 O.3       1 <0>        -0.2129
      4 C3         -3.0514   -2.2131    6.8972 C.ar      1 <0>         0.1013
      5 C4         -2.0122   -3.0441    6.5024 C.ar      1 <0>        -0.1576
      6 C5         -1.2215   -2.6984    5.4261 C.ar      1 <0>        -0.0904
      7 C6         -1.4672   -1.5138    4.7349 C.ar      1 <0>        -0.0517
      8 C7         -2.5078   -0.6789    5.1368 C.ar      1 <0>        -0.0798
      9 C8         -3.2982   -1.0322    6.2109 C.ar      1 <0>        -0.2193
     10 C9         -0.6182   -1.1391    3.5764 C.2       1 <0>        -0.1845
     11 C10        -1.0591   -0.7545    2.3445 C.2       1 <0>        -0.0379
     12 N1          0.0238   -0.5021    1.5812 N.pl3     1 <0>        -0.6201
     13 N2          1.1695   -0.7390    2.3502 N.2       1 <0>        -0.1175
     14 C11         0.7951   -1.1156    3.5487 C.2       1 <0>         0.1197
     15 N3          1.6440   -1.4427    4.6106 N.pl3     1 <0>        -0.3926
     16 S1          0.0021   -0.0041    0.0020 S.o2      1 <0>         2.7757
     17 O2         -1.2429   -0.4241   -0.5392 O.2       1 <0>        -0.8975
     18 O3          1.2475   -0.3902   -0.5628 O.2       1 <0>        -0.8683
     19 C12        -0.0218    1.7577    0.0117 C.ar      1 <0>        -0.7803
     20 C13        -1.2286    2.4321    0.0211 C.ar      1 <0>        -0.0036
     21 C14        -1.2486    3.8139    0.0335 C.ar      1 <0>        -0.1924
     22 C15        -0.0593    4.5229    0.0260 C.ar      1 <0>         0.1575
     23 C16         1.1487    3.8465    0.0113 C.ar      1 <0>        -0.1913
     24 C17         1.1662    2.4647    0.0042 C.ar      1 <0>         0.0118
     25 F1         -0.0777    5.8738    0.0334 F         1 <0>        -0.0963
     26 H1         -6.4426   -1.5180    9.7871 H         1 <0>         0.0871
     27 H2         -6.0637   -3.1783    9.2692 H         1 <0>         0.0894
     28 H3         -4.9562   -2.3118   10.3605 H         1 <0>         0.0887
     29 H4         -4.4569   -0.6820    8.5597 H         1 <0>         0.0742
     30 H5         -5.5644   -1.5485    7.4684 H         1 <0>         0.0749
     31 H6         -1.8223   -3.9622    7.0386 H         1 <0>         0.1457
     32 H7         -0.4126   -3.3452    5.1199 H         1 <0>         0.1398
     33 H8         -2.6975    0.2422    4.6059 H         1 <0>         0.1320
     34 H9         -4.1075   -0.3875    6.5203 H         1 <0>         0.1368
     35 H10        -2.0904   -0.6679    2.0355 H         1 <0>         0.1916
     36 H11         1.2710   -1.7163    5.4632 H         1 <0>         0.2374
     37 H12         2.6059   -1.3961    4.4947 H         1 <0>         0.2332
     38 H13        -2.1561    1.8788    0.0228 H         1 <0>         0.1531
     39 H14        -2.1914    4.3404    0.0450 H         1 <0>         0.1524
     40 H15         2.0769    4.3986    0.0057 H         1 <0>         0.1546
     41 H16         2.1083    1.9368   -0.0070 H         1 <0>         0.1649
@<TRIPOS>BOND
     1    1    2 1
     2    1   26 1
     3    1   27 1
     4    1   28 1
     5    2    3 1
     6    2   29 1
     7    2   30 1
     8    3    4 1
     9    4    9 ar
    10    4    5 ar
    11    5    6 ar
    12    5   31 1
    13    6    7 ar
    14    6   32 1
    15    7    8 ar
    16    7   10 1
    17    8    9 ar
    18    8   33 1
    19    9   34 1
    20   10   14 1
    21   10   11 2
    22   11   12 1
    23   11   35 1
    24   12   13 1
    25   12   16 1
    26   13   14 2
    27   14   15 1
    28   15   36 1
    29   15   37 1
    30   16   17 2
    31   16   18 2
    32   16   19 1
    33   19   24 ar
    34   19   20 ar
    35   20   21 ar
    36   20   38 1
    37   21   22 ar
    38   21   39 1
    39   22   23 ar
    40   22   25 1
    41   23   24 ar
    42   23   40 1
    43   24   41 1
@<TRIPOS>MOLECULE
ZINC01079717
   44    46     0     0     0
SMALL
USER_CHARGES

@<TRIPOS>ATOM
      1 C1          3.6382    5.8914   -0.0038 C.3       1 <0>        -0.2118
      2 C2          2.2314    5.2898    0.0068 C.3       1 <0>        -0.0161
      3 O1          2.3232    3.8638   -0.0008 O.3       1 <0>        -0.2138
      4 C3          1.1542    3.1702    0.0071 C.ar      1 <0>         0.0998
      5 C4          1.1722    1.7825    0.0004 C.ar      1 <0>        -0.1589
      6 C5         -0.0126    1.0758    0.0080 C.ar      1 <0>        -0.0931
      7 C6         -1.2282    1.7567    0.0174 C.ar      1 <0>        -0.0509
      8 C7         -1.2431    3.1500    0.0294 C.ar      1 <0>        -0.0784
      9 C8         -0.0551    3.8512    0.0214 C.ar      1 <0>        -0.2189
     10 C9         -2.5048    0.9993    0.0193 C.2       1 <0>        -0.1875
     11 C10        -3.5528    1.1877    0.8714 C.2       1 <0>        -0.0366
     12 N1         -4.5160    0.3039    0.5391 N.pl3     1 <0>        -0.6178
     13 N2         -4.0576   -0.4622   -0.5393 N.2       1 <0>        -0.1162
     14 C11        -2.8537   -0.0531   -0.8579 C.2       1 <0>         0.1185
     15 N3         -2.0550   -0.5672   -1.8841 N.pl3     1 <0>        -0.3935
     16 S1         -5.9864    0.1466    1.2845 S.o2      1 <0>         2.7733
     17 O2         -6.2682    1.3984    1.8950 O.2       1 <0>        -0.9014
     18 O3         -6.8598   -0.4529    0.3373 O.2       1 <0>        -0.8713
     19 C12        -5.7859   -1.0175    2.5919 C.ar      1 <0>        -0.7678
     20 C13        -5.9970   -2.3634    2.3574 C.ar      1 <0>        -0.0103
     21 C14        -5.8359   -3.2771    3.3821 C.ar      1 <0>        -0.1529
     22 C15        -5.4716   -2.8441    4.6433 C.ar      1 <0>        -0.0141
     23 C16        -5.2655   -1.4977    4.8791 C.ar      1 <0>        -0.1528
     24 C17        -5.4229   -0.5844    3.8534 C.ar      1 <0>        -0.0246
     25 C18        -5.2995   -3.8398    5.7614 C.3       1 <0>        -0.1848
     26 H1          4.1827    5.5577    0.8795 H         1 <0>         0.0886
     27 H2          4.1658    5.5660   -0.9004 H         1 <0>         0.0886
     28 H3          3.5682    6.9792    0.0020 H         1 <0>         0.0870
     29 H4          1.6869    5.6236   -0.8765 H         1 <0>         0.0750
     30 H5          1.7039    5.6152    0.9034 H         1 <0>         0.0747
     31 H6          2.1147    1.2553   -0.0110 H         1 <0>         0.1444
     32 H7          0.0021   -0.0041    0.0020 H         1 <0>         0.1380
     33 H8         -2.1838    3.6804    0.0402 H         1 <0>         0.1366
     34 H9         -0.0660    4.9311    0.0266 H         1 <0>         0.1373
     35 H10        -3.6036    1.9158    1.6674 H         1 <0>         0.1911
     36 H11        -1.1728   -0.1969   -2.0439 H         1 <0>         0.2369
     37 H12        -2.3832   -1.2941   -2.4362 H         1 <0>         0.2326
     38 H13        -6.2850   -2.7013    1.3729 H         1 <0>         0.1575
     39 H14        -5.9972   -4.3290    3.1980 H         1 <0>         0.1393
     40 H15        -4.9812   -1.1593    5.8645 H         1 <0>         0.1378
     41 H16        -5.2619    0.4676    4.0376 H         1 <0>         0.1460
     42 H17        -6.2493   -3.9717    6.2798 H         1 <0>         0.0952
     43 H18        -4.9743   -4.7954    5.3501 H         1 <0>         0.0879
     44 H19        -4.5506   -3.4725    6.4630 H         1 <0>         0.0871
@<TRIPOS>BOND
     1    1    2 1
     2    1   26 1
     3    1   27 1
     4    1   28 1
     5    2    3 1
     6    2   29 1
     7    2   30 1
     8    3    4 1
     9    4    9 ar
    10    4    5 ar
    11    5    6 ar
    12    5   31 1
    13    6    7 ar
    14    6   32 1
    15    7    8 ar
    16    7   10 1
    17    8    9 ar
    18    8   33 1
    19    9   34 1
    20   10   14 1
    21   10   11 2
    22   11   12 1
    23   11   35 1
    24   12   13 1
    25   12   16 1
    26   13   14 2
    27   14   15 1
    28   15   36 1
    29   15   37 1
    30   16   17 2
    31   16   18 2
    32   16   19 1
    33   19   24 ar
    34   19   20 ar
    35   20   21 ar
    36   20   38 1
    37   21   22 ar
    38   21   39 1
    39   22   23 ar
    40   22   25 1
    41   23   24 ar
    42   23   40 1
    43   24   41 1
    44   25   42 1
    45   25   43 1
    46   25   44 1
@<TRIPOS>MOLECULE
ZINC01085868
   43    46     0     0     0
SMALL
USER_CHARGES

@<TRIPOS>ATOM
      1 C1         -2.4067   -1.8263   -0.4714 C.3       1 <0>        -0.1670
      2 C2         -1.1543   -0.9882   -0.4717 C.ar      1 <0>         0.0426
      3 C3          0.0768   -1.5884   -0.2520 C.ar      1 <0>        -0.1827
      4 C4          1.2272   -0.8360   -0.2488 C.ar      1 <0>         0.0260
      5 C5          1.1362    0.5607   -0.4735 C.ar      1 <0>        -0.1514
      6 C6          2.2187    1.5396   -0.5084 C.2       1 <0>         0.0398
      7 C7          1.8522    2.8547   -0.7626 C.2       1 <0>        -0.4013
      8 S1          0.0972    2.8149   -0.9350 S.3       1 <0>         0.4906
      9 C8         -0.1632    1.0732   -0.6891 C.ar      1 <0>        -0.1326
     10 N1         -1.2354    0.3112   -0.6814 N.ar      1 <0>        -0.1434
     11 C9          2.7649    3.9237   -0.8354 C.2       1 <0>         0.4019
     12 O1          2.4066    5.0866   -0.8830 O.2       1 <0>        -0.3404
     13 N2          4.0768    3.5627   -0.8492 N.am      1 <0>        -0.4330
     14 C10         4.4443    2.1597   -1.0241 C.3       1 <0>         0.1469
     15 H1          4.3920    1.9129   -2.0845 H         1 <0>         0.1623
     16 N3          3.5734    1.2440   -0.2860 N.pl3     1 <0>        -0.2353
     17 C11         5.8623    1.9672   -0.5515 C.ar      1 <0>        -0.0527
     18 C12         6.4070    2.8384    0.3737 C.ar      1 <0>        -0.1309
     19 C13         7.7075    2.6618    0.8070 C.ar      1 <0>        -0.0842
     20 C14         8.4634    1.6135    0.3161 C.ar      1 <0>        -0.1248
     21 C15         7.9187    0.7421   -0.6081 C.ar      1 <0>        -0.0690
     22 C16         6.6165    0.9164   -1.0387 C.ar      1 <0>        -0.0887
     23 N4          6.0314   -0.0198   -2.0247 N.pl3     1 <0>         0.5436
     24 O2          6.7294   -0.8727   -2.5432 O.2       1 <0>        -0.3524
     25 O3          4.8520    0.0627   -2.3175 O.3       1 <0>        -0.3369
     26 C17         2.5656   -1.4864   -0.0105 C.3       1 <0>         0.0173
     27 O4          2.3846   -2.8901    0.1867 O.3       1 <0>        -0.2932
     28 C18         3.5991   -3.6053    0.4221 C.3       1 <0>        -0.0596
     29 H2         -2.6042   -2.1848   -1.4817 H         1 <0>         0.0995
     30 H3         -2.2743   -2.6772    0.1967 H         1 <0>         0.0892
     31 H4         -3.2475   -1.2230   -0.1291 H         1 <0>         0.1025
     32 H5          0.1318   -2.6535   -0.0819 H         1 <0>         0.1652
     33 H6          4.7670    4.2360   -0.7428 H         1 <0>         0.2385
     34 H7          3.7889    1.2556    0.6997 H         1 <0>         0.1811
     35 H8          5.8163    3.6570    0.7575 H         1 <0>         0.1564
     36 H9          8.1330    3.3426    1.5295 H         1 <0>         0.1487
     37 H10         9.4795    1.4754    0.6550 H         1 <0>         0.1523
     38 H11         8.5091   -0.0770   -0.9914 H         1 <0>         0.1703
     39 H12         3.2090   -1.3209   -0.8747 H         1 <0>         0.1135
     40 H13         3.0282   -1.0517    0.8755 H         1 <0>         0.0758
     41 H14         4.2640   -3.4838   -0.4330 H         1 <0>         0.0630
     42 H15         4.0832   -3.2146    1.3172 H         1 <0>         0.0516
     43 H16         3.3766   -4.6632    0.5619 H         1 <0>         0.1011
@<TRIPOS>BOND
     1    1    2 1
     2    1   29 1
     3    1   30 1
     4    1   31 1
     5    2   10 ar
     6    2    3 ar
     7    3    4 ar
     8    3   32 1
     9    4    5 ar
    10    4   26 1
    11    5    9 ar
    12    5    6 1
    13    6   16 1
    14    6    7 2
    15    7    8 1
    16    7   11 1
    17    8    9 1
    18    9   10 ar
    19   11   12 2
    20   11   13 am
    21   13   14 1
    22   13   33 1
    23   14   15 1
    24   14   16 1
    25   14   17 1
    26   16   34 1
    27   17   22 ar
    28   17   18 ar
    29   18   19 ar
    30   18   35 1
    31   19   20 ar
    32   19   36 1
    33   20   21 ar
    34   20   37 1
    35   21   22 ar
    36   21   38 1
    37   22   23 1
    38   23   24 2
    39   23   25 1
    40   26   27 1
    41   26   39 1
    42   26   40 1
    43   27   28 1
    44   28   41 1
    45   28   42 1
    46   28   43 1
@<TRIPOS>MOLECULE
ZINC01086128
   48    52     0     0     0
SMALL
USER_CHARGES

@<TRIPOS>ATOM
      1 C1          3.7113    3.0999    1.2495 C.3       1 <0>        -0.2238
      2 C2          3.2152    1.7224    1.6938 C.3       1 <0>         0.0948
      3 C3          3.3332    1.6040    3.2146 C.3       1 <0>         0.0009
      4 O1          2.8699    0.3175    3.6296 O.3       1 <0>        -0.3413
      5 C4          4.0642    0.6362    1.0302 C.3       1 <0>        -0.0107
      6 O2          5.4306    0.7976    1.4160 O.3       1 <0>        -0.3566
      7 N1          1.8143    1.5570    1.2983 N.am      1 <0>        -0.3466
      8 C5          1.3859    1.6113   -0.0025 C.2       1 <0>         0.3318
      9 O3          2.0123    2.0046   -0.9630 O.2       1 <0>        -0.3074
     10 C6         -0.0127    1.0858    0.0080 C.3       1 <0>        -0.1440
     11 H1          0.0021   -0.0041    0.0020 H         1 <0>         0.1412
     12 C7         -1.0791    1.5925   -0.9532 C.3       1 <0>        -0.0011
     13 C8         -1.6483    2.9206   -0.4583 C.ar      1 <0>        -0.0838
     14 C9         -1.7576    4.0341   -1.2502 C.ar      1 <0>        -0.1056
     15 C10        -2.4193    5.1490   -0.7563 C.ar      1 <0>        -0.1285
     16 C11        -2.9618    5.1489    0.5154 C.ar      1 <0>        -0.1225
     17 C12        -2.8264    4.0283    1.3294 C.ar      1 <0>        -0.1104
     18 C13        -2.1609    2.9521    0.8410 C.ar      1 <0>        -0.0815
     19 C14        -1.8640    1.6537    1.6140 C.3       1 <0>         0.0223
     20 C15        -0.4043    1.5992    1.4191 C.3       1 <0>        -0.1943
     21 H2         -0.2130    2.6357    1.1414 H         1 <0>         0.1218
     22 C16         0.7930    1.3307    2.1974 C.2       1 <0>         0.3617
     23 O4          0.8747    0.9897    3.3579 O.2       1 <0>        -0.2674
     24 C17        -2.5720    0.6096    0.7659 C.ar      1 <0>        -0.0695
     25 C18        -2.2116    0.6089   -0.6008 C.ar      1 <0>        -0.0822
     26 C19        -2.8187   -0.2174   -1.4960 C.ar      1 <0>        -0.1118
     27 C20        -3.7920   -1.0971   -1.0358 C.ar      1 <0>        -0.1246
     28 C21        -4.1254   -1.1268    0.3056 C.ar      1 <0>        -0.1261
     29 C22        -3.5146   -0.2655    1.2069 C.ar      1 <0>        -0.1061
     30 H3          3.1065    3.8738    1.7222 H         1 <0>         0.0760
     31 H4          4.7536    3.2230    1.5437 H         1 <0>         0.1024
     32 H5          3.6272    3.1843    0.1660 H         1 <0>         0.1079
     33 H6          4.3755    1.7271    3.5088 H         1 <0>         0.0851
     34 H7          2.7284    2.3779    3.6873 H         1 <0>         0.0683
     35 H8          2.9159    0.1720    4.5845 H         1 <0>         0.2154
     36 H9          3.7108   -0.3451    1.3468 H         1 <0>         0.0845
     37 H10         3.9801    0.7206   -0.0532 H         1 <0>         0.0757
     38 H11         6.0280    0.1416    1.0315 H         1 <0>         0.2163
     39 H12        -0.7728    1.5989   -1.9993 H         1 <0>         0.1361
     40 H13        -1.3346    4.0435   -2.2438 H         1 <0>         0.1377
     41 H14        -2.5117    6.0300   -1.3742 H         1 <0>         0.1315
     42 H15        -3.4909    6.0183    0.8768 H         1 <0>         0.1329
     43 H16        -3.2411    4.0160    2.3266 H         1 <0>         0.1373
     44 H17        -2.1743    1.6618    2.6588 H         1 <0>         0.1311
     45 H18        -2.5497   -0.1904   -2.5416 H         1 <0>         0.1355
     46 H19        -4.2891   -1.7598   -1.7287 H         1 <0>         0.1316
     47 H20        -4.8686   -1.8278    0.6560 H         1 <0>         0.1316
     48 H21        -3.7781   -0.2896    2.2540 H         1 <0>         0.1344
@<TRIPOS>BOND
     1    1    2 1
     2    1   30 1
     3    1   31 1
     4    1   32 1
     5    2    3 1
     6    2    5 1
     7    2    7 1
     8    3    4 1
     9    3   33 1
    10    3   34 1
    11    4   35 1
    12    5    6 1
    13    5   36 1
    14    5   37 1
    15    6   38 1
    16    7   22 am
    17    7    8 am
    18    8    9 2
    19    8   10 1
    20   10   11 1
    21   10   20 1
    22   10   12 1
    23   12   25 1
    24   12   13 1
    25   12   39 1
    26   13   18 ar
    27   13   14 ar
    28   14   15 ar
    29   14   40 1
    30   15   16 ar
    31   15   41 1
    32   16   17 ar
    33   16   42 1
    34   17   18 ar
    35   17   43 1
    36   18   19 1
    37   19   20 1
    38   19   24 1
    39   19   44 1
    40   20   21 1
    41   20   22 1
    42   22   23 2
    43   24   29 ar
    44   24   25 ar
    45   25   26 ar
    46   26   27 ar
    47   26   45 1
    48   27   28 ar
    49   27   46 1
    50   28   29 ar
    51   28   47 1
    52   29   48 1
@<TRIPOS>MOLECULE
ZINC01086386
   44    46     0     0     0
SMALL
USER_CHARGES

@<TRIPOS>ATOM
      1 C1         -0.0292    1.3258    2.4021 C.3       1 <0>        -0.2099
      2 C2         -1.0248    1.0918    3.5400 C.3       1 <0>        -0.2534
      3 H1         -0.6579    0.2937    4.1854 H         1 <0>         0.1323
      4 C3         -1.1763    2.3578    4.3433 C.2       1 <0>         0.3178
      5 O1         -2.1316    3.0820    4.1593 O.2       1 <0>        -0.3385
      6 N1         -0.2501    2.6853    5.2660 N.am      1 <0>        -0.3249
      7 N2         -0.3875    3.8329    5.9941 N.3       1 <0>        -0.2113
      8 S1         -2.6299    0.6195    2.8497 S.3       1 <0>         0.3333
      9 C4         -2.2041   -0.9231    2.1125 C.2       1 <0>        -0.0069
     10 N3         -0.9670   -1.3429    2.2121 N.2       1 <0>        -0.2627
     11 C5         -0.5722   -2.5133    1.6721 C.ar      1 <0>         0.0672
     12 C6          0.7482   -2.9607    1.7782 C.ar      1 <0>        -0.1326
     13 C7          1.1055   -4.1533    1.2153 C.ar      1 <0>        -0.0880
     14 C8          0.1753   -4.9311    0.5376 C.ar      1 <0>        -0.1601
     15 C9         -1.1236   -4.5206    0.4168 C.ar      1 <0>        -0.0471
     16 C10        -1.5159   -3.3074    0.9812 C.ar      1 <0>        -0.1914
     17 C11        -2.8968   -2.8165    0.8829 C.2       1 <0>         0.3481
     18 O2         -3.7541   -3.4554    0.3008 O.2       1 <0>        -0.3285
     19 N4         -3.1813   -1.6296    1.4676 N.am      1 <0>        -0.2044
     20 C12        -4.4857   -1.1184    1.4074 C.ar      1 <0>        -0.0304
     21 C13        -4.8615   -0.2965    0.3534 C.ar      1 <0>        -0.0557
     22 C14        -6.1473    0.2030    0.2923 C.ar      1 <0>        -0.2178
     23 C15        -7.0606   -0.1081    1.2892 C.ar      1 <0>         0.1166
     24 C16        -6.6842   -0.9255    2.3451 C.ar      1 <0>        -0.1561
     25 C17        -5.4002   -1.4295    2.4047 C.ar      1 <0>        -0.0618
     26 O3         -8.3249    0.3886    1.2316 O.3       1 <0>        -0.2080
     27 C18        -8.6437    1.2233    0.1164 C.3       1 <0>        -0.0648
     28 H2          0.0804    0.4101    1.8211 H         1 <0>         0.1200
     29 H3          0.9375    1.6102    2.8178 H         1 <0>         0.0783
     30 H4         -0.3961    2.1239    1.7567 H         1 <0>         0.0961
     31 H5          0.5139    2.1061    5.4131 H         1 <0>         0.2248
     32 H6         -1.2739    3.8517    6.4757 H         1 <0>         0.1631
     33 H7          0.3783    3.9441    6.6417 H         1 <0>         0.1576
     34 H8          1.4822   -2.3664    2.3022 H         1 <0>         0.1430
     35 H9          2.1261   -4.4965    1.2988 H         1 <0>         0.1323
     36 H10         0.4811   -5.8706    0.1015 H         1 <0>         0.1350
     37 H11        -1.8403   -5.1316   -0.1118 H         1 <0>         0.1538
     38 H12        -4.1492   -0.0506   -0.4204 H         1 <0>         0.1433
     39 H13        -6.4408    0.8394   -0.5294 H         1 <0>         0.1427
     40 H14        -7.3957   -1.1674    3.1209 H         1 <0>         0.1509
     41 H15        -5.1071   -2.0652    3.2271 H         1 <0>         0.1454
     42 H16        -9.6805    1.5510    0.1925 H         1 <0>         0.1109
     43 H17        -7.9869    2.0932    0.1141 H         1 <0>         0.0713
     44 H18        -8.5070    0.6623   -0.8082 H         1 <0>         0.0707
@<TRIPOS>BOND
     1    1    2 1
     2    1   28 1
     3    1   29 1
     4    1   30 1
     5    2    3 1
     6    2    4 1
     7    2    8 1
     8    4    5 2
     9    4    6 am
    10    6    7 1
    11    6   31 1
    12    7   32 1
    13    7   33 1
    14    8    9 1
    15    9   19 1
    16    9   10 2
    17   10   11 1
    18   11   16 ar
    19   11   12 ar
    20   12   13 ar
    21   12   34 1
    22   13   14 ar
    23   13   35 1
    24   14   15 ar
    25   14   36 1
    26   15   16 ar
    27   15   37 1
    28   16   17 1
    29   17   18 2
    30   17   19 am
    31   19   20 1
    32   20   25 ar
    33   20   21 ar
    34   21   22 ar
    35   21   38 1
    36   22   23 ar
    37   22   39 1
    38   23   24 ar
    39   23   26 1
    40   24   25 ar
    41   24   40 1
    42   25   41 1
    43   26   27 1
    44   27   42 1
    45   27   43 1
    46   27   44 1
@<TRIPOS>MOLECULE
ZINC01086387
   44    46     0     0     0
SMALL
USER_CHARGES

@<TRIPOS>ATOM
      1 C1         -2.7519    2.7741    1.7896 C.3       1 <0>        -0.2093
      2 C2         -1.4772    2.6530    0.9523 C.3       1 <0>        -0.2518
      3 H1         -1.0025    1.6920    1.1500 H         1 <0>         0.1302
      4 C3         -0.5290    3.7661    1.3169 C.2       1 <0>         0.3171
      5 O1         -0.5144    4.7884    0.6644 O.2       1 <0>        -0.3377
      6 N1          0.3027    3.6257    2.3681 N.am      1 <0>        -0.3251
      7 N2          1.1621    4.6347    2.6986 N.3       1 <0>        -0.2112
      8 S1         -1.8963    2.7687   -0.8048 S.3       1 <0>         0.3294
      9 C4         -2.8617    1.3059   -0.9860 C.2       1 <0>        -0.0060
     10 N3         -3.0446    0.5439    0.0640 N.2       1 <0>        -0.2619
     11 C5         -3.7719   -0.5891   -0.0033 C.ar      1 <0>         0.0670
     12 C6         -3.9665   -1.4024    1.1173 C.ar      1 <0>        -0.1324
     13 C7         -4.7106   -2.5426    1.0044 C.ar      1 <0>        -0.0881
     14 C8         -5.2787   -2.9083   -0.2093 C.ar      1 <0>        -0.1599
     15 C9         -5.1068   -2.1336   -1.3230 C.ar      1 <0>        -0.0472
     16 C10        -4.3517   -0.9646   -1.2367 C.ar      1 <0>        -0.1913
     17 C11        -4.1334   -0.0944   -2.3997 C.2       1 <0>         0.3480
     18 O2         -4.6068   -0.3646   -3.4883 O.2       1 <0>        -0.3285
     19 N4         -3.3900    1.0214   -2.2148 N.am      1 <0>        -0.2044
     20 C12        -3.1560    1.8887   -3.2914 C.ar      1 <0>        -0.0302
     21 C13        -2.0463    1.7023   -4.1048 C.ar      1 <0>        -0.0584
     22 C14        -1.8190    2.5538   -5.1677 C.ar      1 <0>        -0.2193
     23 C15        -2.6933    3.6019   -5.4165 C.ar      1 <0>         0.1165
     24 C16        -3.7994    3.7918   -4.6009 C.ar      1 <0>        -0.1545
     25 C17        -4.0306    2.9378   -3.5409 C.ar      1 <0>        -0.0592
     26 O3         -2.4659    4.4434   -6.4598 O.3       1 <0>        -0.2073
     27 C18        -1.3083    4.1890   -7.2581 C.3       1 <0>        -0.0645
     28 H2         -3.2267    3.7352    1.5919 H         1 <0>         0.0973
     29 H3         -3.4378    1.9690    1.5259 H         1 <0>         0.1195
     30 H4         -2.4996    2.7044    2.8477 H         1 <0>         0.0794
     31 H5          0.2909    2.8081    2.8899 H         1 <0>         0.2246
     32 H6          1.7187    4.3867    3.5029 H         1 <0>         0.1576
     33 H7          1.7484    4.8814    1.9153 H         1 <0>         0.1628
     34 H8         -3.5310   -1.1303    2.0675 H         1 <0>         0.1432
     35 H9         -4.8596   -3.1688    1.8717 H         1 <0>         0.1324
     36 H10        -5.8630   -3.8143   -0.2740 H         1 <0>         0.1350
     37 H11        -5.5527   -2.4250   -2.2625 H         1 <0>         0.1539
     38 H12        -1.3634    0.8889   -3.9088 H         1 <0>         0.1416
     39 H13        -0.9583    2.4063   -5.8032 H         1 <0>         0.1417
     40 H14        -4.4795    4.6080   -4.7948 H         1 <0>         0.1520
     41 H15        -4.8915    3.0859   -2.9058 H         1 <0>         0.1472
     42 H16        -1.2452    4.9314   -8.0536 H         1 <0>         0.1110
     43 H17        -0.4165    4.2483   -6.6342 H         1 <0>         0.0701
     44 H18        -1.3802    3.1931   -7.6954 H         1 <0>         0.0706
@<TRIPOS>BOND
     1    1    2 1
     2    1   28 1
     3    1   29 1
     4    1   30 1
     5    2    3 1
     6    2    4 1
     7    2    8 1
     8    4    5 2
     9    4    6 am
    10    6    7 1
    11    6   31 1
    12    7   32 1
    13    7   33 1
    14    8    9 1
    15    9   19 1
    16    9   10 2
    17   10   11 1
    18   11   16 ar
    19   11   12 ar
    20   12   13 ar
    21   12   34 1
    22   13   14 ar
    23   13   35 1
    24   14   15 ar
    25   14   36 1
    26   15   16 ar
    27   15   37 1
    28   16   17 1
    29   17   18 2
    30   17   19 am
    31   19   20 1
    32   20   25 ar
    33   20   21 ar
    34   21   22 ar
    35   21   38 1
    36   22   23 ar
    37   22   39 1
    38   23   24 ar
    39   23   26 1
    40   24   25 ar
    41   24   40 1
    42   25   41 1
    43   26   27 1
    44   27   42 1
    45   27   43 1
    46   27   44 1
@<TRIPOS>MOLECULE
ZINC01086630
   41    43     0     0     0
SMALL
USER_CHARGES

@<TRIPOS>ATOM
      1 C1          4.0893    2.6195   10.2963 C.3       1 <0>        -0.0650
      2 O1          3.0963    3.5800    9.9312 O.3       1 <0>        -0.2048
      3 C2          2.7195    3.6116    8.6279 C.ar      1 <0>         0.1248
      4 C3          1.7578    4.5226    8.2064 C.ar      1 <0>        -0.1694
      5 C4          1.3720    4.5573    6.8852 C.ar      1 <0>        -0.0250
      6 C5          1.9492    3.6753    5.9671 C.ar      1 <0>        -0.1784
      7 C6          2.9121    2.7573    6.3962 C.ar      1 <0>        -0.0648
      8 C7          3.2961    2.7327    7.7182 C.ar      1 <0>        -0.2320
      9 C8          1.5390    3.7091    4.5507 C.2       1 <0>         0.3435
     10 O2          0.6980    4.5045    4.1804 O.2       1 <0>        -0.2868
     11 N1          2.0967    2.8578    3.6671 N.am      1 <0>        -0.3605
     12 C9          1.7219    2.8886    2.3729 C.2       1 <0>         0.2952
     13 O3          0.8830    3.6821    2.0035 O.2       1 <0>        -0.2705
     14 C10         2.3456    1.9368    1.3849 C.3       1 <0>        -0.1870
     15 C11         1.7487    2.1788   -0.0029 C.3       1 <0>        -0.2225
     16 H1          1.8764    3.2245   -0.2826 H         1 <0>         0.1829
     17 C12         2.4382    1.2971   -1.0114 C.2       1 <0>         0.3062
     18 O4          3.3257    1.7761   -1.6853 O.2       1 <0>        -0.3419
     19 N2          2.1211    0.0202   -1.1990 N.am      1 <0>        -0.3028
     20 C13         1.0638   -0.6681   -0.6116 C.ar      1 <0>         0.0628
     21 C14         1.0694   -2.0596   -0.6239 C.ar      1 <0>        -0.1628
     22 C15         0.0424   -2.7654   -0.0296 C.ar      1 <0>        -0.0984
     23 C16        -1.0037   -2.0994    0.5826 C.ar      1 <0>        -0.1447
     24 C17        -1.0250   -0.7168    0.5983 C.ar      1 <0>        -0.0713
     25 C18         0.0021   -0.0041    0.0020 C.ar      1 <0>        -0.2537
     26 S1         -0.0219    1.7617    0.0117 S.3       1 <0>         0.2322
     27 H2          3.7248    1.6169   10.0724 H         1 <0>         0.0701
     28 H3          5.0025    2.8084    9.7319 H         1 <0>         0.0704
     29 H4          4.2982    2.7003   11.3630 H         1 <0>         0.1133
     30 H5          1.3123    5.2037    8.9163 H         1 <0>         0.1529
     31 H6          0.6247    5.2653    6.5585 H         1 <0>         0.1644
     32 H7          3.3570    2.0709    5.6910 H         1 <0>         0.1212
     33 H8          4.0427    2.0263    8.0498 H         1 <0>         0.1391
     34 H9          2.7679    2.2229    3.9627 H         1 <0>         0.2278
     35 H10         2.1450    0.9106    1.6928 H         1 <0>         0.1129
     36 H11         3.4224    2.1021    1.3512 H         1 <0>         0.1183
     37 H12         2.6843   -0.4836   -1.8072 H         1 <0>         0.2454
     38 H13         1.8809   -2.5897   -1.1003 H         1 <0>         0.1351
     39 H14         0.0558   -3.8452   -0.0431 H         1 <0>         0.1355
     40 H15        -1.8027   -2.6581    1.0473 H         1 <0>         0.1381
     41 H16        -1.8409   -0.1937    1.0749 H         1 <0>         0.1504
@<TRIPOS>BOND
     1    1    2 1
     2    1   27 1
     3    1   28 1
     4    1   29 1
     5    2    3 1
     6    3    8 ar
     7    3    4 ar
     8    4    5 ar
     9    4   30 1
    10    5    6 ar
    11    5   31 1
    12    6    7 ar
    13    6    9 1
    14    7    8 ar
    15    7   32 1
    16    8   33 1
    17    9   10 2
    18    9   11 am
    19   11   12 am
    20   11   34 1
    21   12   13 2
    22   12   14 1
    23   14   15 1
    24   14   35 1
    25   14   36 1
    26   15   16 1
    27   15   26 1
    28   15   17 1
    29   17   18 2
    30   17   19 am
    31   19   20 1
    32   19   37 1
    33   20   25 ar
    34   20   21 ar
    35   21   22 ar
    36   21   38 1
    37   22   23 ar
    38   22   39 1
    39   23   24 ar
    40   23   40 1
    41   24   25 ar
    42   24   41 1
    43   25   26 1
@<TRIPOS>MOLECULE
ZINC01088128
   43    45     0     0     0
SMALL
USER_CHARGES

@<TRIPOS>ATOM
      1 C1         -6.3050    2.8768    3.9833 C.3       1 <0>        -0.2403
      2 C2         -5.6778    3.2683    2.6701 C.2       1 <0>         0.3236
      3 O1         -4.7196    4.0116    2.6534 O.2       1 <0>        -0.3275
      4 N1         -6.1817    2.7923    1.5142 N.am      1 <0>        -0.8308
      5 S1         -5.4925    3.2225    0.0712 S.o2      1 <0>         2.7489
      6 O2         -5.3497    4.6361    0.0948 O.2       1 <0>        -0.8808
      7 O3         -6.2218    2.5473   -0.9444 O.2       1 <0>        -0.9147
      8 C3         -3.8632    2.5520    0.0516 C.ar      1 <0>        -0.7824
      9 C4         -3.6448    1.2845   -0.4561 C.ar      1 <0>        -0.0132
     10 C5         -2.3690    0.7557   -0.4720 C.ar      1 <0>        -0.1949
     11 C6         -1.3048    1.4986    0.0221 C.ar      1 <0>         0.1227
     12 C7         -1.5283    2.7692    0.5361 C.ar      1 <0>        -0.1569
     13 C8         -2.8057    3.2944    0.5444 C.ar      1 <0>         0.0129
     14 N2         -0.0111    0.9658    0.0074 N.am      1 <0>        -0.3293
     15 C9          1.0497    1.7771   -0.1744 C.2       1 <0>         0.3279
     16 O4          0.8793    2.9531   -0.4170 O.2       1 <0>        -0.3268
     17 C10         2.4477    1.2228   -0.0762 C.3       1 <0>        -0.2160
     18 H1          2.5876    0.4271    0.6555 H         1 <0>         0.1309
     19 C11         3.2715    1.1518   -1.3635 C.3       1 <0>        -0.1918
     20 C12         3.6096    2.1940   -0.2945 C.3       1 <0>        -0.0792
     21 H2          4.5141    2.0369    0.2932 H         1 <0>         0.1312
     22 C13         3.2685    3.6316   -0.5914 C.ar      1 <0>        -0.0522
     23 C14         2.5209    3.9477   -1.7103 C.ar      1 <0>        -0.0689
     24 C15         2.2047    5.2660   -1.9804 C.ar      1 <0>        -0.1277
     25 C16         2.6431    6.2689   -1.1361 C.ar      1 <0>        -0.1202
     26 C17         3.3951    5.9533   -0.0200 C.ar      1 <0>        -0.1352
     27 C18         3.7081    4.6346    0.2522 C.ar      1 <0>        -0.1149
     28 H3         -5.8267    1.9723    4.3590 H         1 <0>         0.1090
     29 H4         -6.1729    3.6838    4.7039 H         1 <0>         0.1218
     30 H5         -7.3690    2.6911    3.8367 H         1 <0>         0.0899
     31 H6         -6.9480    2.1978    1.5276 H         1 <0>         0.2519
     32 H7         -4.4728    0.7072   -0.8402 H         1 <0>         0.1464
     33 H8         -2.1992   -0.2346   -0.8680 H         1 <0>         0.1342
     34 H9         -0.7035    3.3476    0.9255 H         1 <0>         0.1705
     35 H10        -2.9795    4.2840    0.9402 H         1 <0>         0.1741
     36 H11         0.1220    0.0121    0.1239 H         1 <0>         0.2345
     37 H12         3.9537    0.3095   -1.4786 H         1 <0>         0.1171
     38 H13         2.8023    1.5055   -2.2815 H         1 <0>         0.1283
     39 H14         2.1812    3.1644   -2.3718 H         1 <0>         0.1244
     40 H15         1.6174    5.5126   -2.8526 H         1 <0>         0.1284
     41 H16         2.3983    7.2991   -1.3486 H         1 <0>         0.1262
     42 H17         3.7380    6.7368    0.6394 H         1 <0>         0.1259
     43 H18         4.2956    4.3880    1.1242 H         1 <0>         0.1229
@<TRIPOS>BOND
     1    1    2 1
     2    1   28 1
     3    1   29 1
     4    1   30 1
     5    2    3 2
     6    2    4 am
     7    4    5 1
     8    4   31 1
     9    5    6 2
    10    5    7 2
    11    5    8 1
    12    8   13 ar
    13    8    9 ar
    14    9   10 ar
    15    9   32 1
    16   10   11 ar
    17   10   33 1
    18   11   12 ar
    19   11   14 1
    20   12   13 ar
    21   12   34 1
    22   13   35 1
    23   14   15 am
    24   14   36 1
    25   15   16 2
    26   15   17 1
    27   17   18 1
    28   17   20 1
    29   17   19 1
    30   19   20 1
    31   19   37 1
    32   19   38 1
    33   20   21 1
    34   20   22 1
    35   22   27 ar
    36   22   23 ar
    37   23   24 ar
    38   23   39 1
    39   24   25 ar
    40   24   40 1
    41   25   26 ar
    42   25   41 1
    43   26   27 ar
    44   26   42 1
    45   27   43 1
@<TRIPOS>MOLECULE
ZINC01088131
   43    45     0     0     0
SMALL
USER_CHARGES

@<TRIPOS>ATOM
      1 C1         -3.6359    4.1897   10.6937 C.3       1 <0>        -0.2384
      2 C2         -4.2217    3.8608    9.3448 C.2       1 <0>         0.3253
      3 O1         -4.8537    4.6991    8.7375 O.2       1 <0>        -0.3322
      4 N1         -4.0434    2.6352    8.8133 N.am      1 <0>        -0.8295
      5 S1         -4.6872    2.2738    7.3310 S.o2      1 <0>         2.7487
      6 O2         -6.0450    2.6912    7.3653 O.2       1 <0>        -0.8841
      7 O3         -4.3087    0.9356    7.0391 O.2       1 <0>        -0.9115
      8 C3         -3.8758    3.2962    6.1473 C.ar      1 <0>        -0.7811
      9 C4         -2.7226    2.8518    5.5269 C.ar      1 <0>        -0.0153
     10 C5         -2.0838    3.6512    4.5994 C.ar      1 <0>        -0.1585
     11 C6         -2.6009    4.9022    4.2896 C.ar      1 <0>         0.1192
     12 C7         -3.7565    5.3476    4.9180 C.ar      1 <0>        -0.1920
     13 C8         -4.3933    4.5414    5.8411 C.ar      1 <0>         0.0114
     14 N2         -1.9558    5.7147    3.3507 N.am      1 <0>        -0.3281
     15 C9         -1.3474    5.1594    2.2839 C.2       1 <0>         0.3292
     16 O4         -1.2862    3.9525    2.1809 O.2       1 <0>        -0.3324
     17 C10        -0.7432    6.0381    1.2191 C.3       1 <0>        -0.2155
     18 H1         -0.3080    6.9730    1.5722 H         1 <0>         0.1302
     19 C11        -1.4148    6.0458   -0.1564 C.3       1 <0>        -0.1891
     20 C12        -0.0667    5.3475    0.0333 C.3       1 <0>        -0.0808
     21 H2          0.8135    5.8281   -0.3938 H         1 <0>         0.1311
     22 C13        -0.0556    3.8406    0.0194 C.ar      1 <0>        -0.0523
     23 C14         1.1466    3.1584    0.0040 C.ar      1 <0>        -0.1148
     24 C15         1.1568    1.7761   -0.0082 C.ar      1 <0>        -0.1367
     25 C16        -0.0352    1.0761   -0.0055 C.ar      1 <0>        -0.1210
     26 C17        -1.2374    1.7584    0.0042 C.ar      1 <0>        -0.1293
     27 C18        -1.2476    3.1406    0.0218 C.ar      1 <0>        -0.0666
     28 H3         -3.1069    3.3194   11.0821 H         1 <0>         0.0838
     29 H4         -2.9404    5.0231   10.5944 H         1 <0>         0.1155
     30 H5         -4.4365    4.4645   11.3804 H         1 <0>         0.1200
     31 H6         -3.5379    1.9648    9.2990 H         1 <0>         0.2529
     32 H7         -2.3209    1.8788    5.7683 H         1 <0>         0.1501
     33 H8         -1.1827    3.3038    4.1157 H         1 <0>         0.1730
     34 H9         -4.1589    6.3217    4.6822 H         1 <0>         0.1376
     35 H10        -5.2941    4.8857    6.3274 H         1 <0>         0.1707
     36 H11        -1.9465    6.6776    3.4675 H         1 <0>         0.2358
     37 H12        -1.4214    6.9859   -0.7079 H         1 <0>         0.1178
     38 H13        -2.2936    5.4153   -0.2912 H         1 <0>         0.1287
     39 H14         2.0779    3.7053    0.0018 H         1 <0>         0.1229
     40 H15         2.0961    1.2431   -0.0203 H         1 <0>         0.1254
     41 H16        -0.0272   -0.0038   -0.0153 H         1 <0>         0.1256
     42 H17        -2.1687    1.2115    0.0019 H         1 <0>         0.1287
     43 H18        -2.1868    3.6736    0.0335 H         1 <0>         0.1255
@<TRIPOS>BOND
     1    1    2 1
     2    1   28 1
     3    1   29 1
     4    1   30 1
     5    2    3 2
     6    2    4 am
     7    4    5 1
     8    4   31 1
     9    5    6 2
    10    5    7 2
    11    5    8 1
    12    8   13 ar
    13    8    9 ar
    14    9   10 ar
    15    9   32 1
    16   10   11 ar
    17   10   33 1
    18   11   12 ar
    19   11   14 1
    20   12   13 ar
    21   12   34 1
    22   13   35 1
    23   14   15 am
    24   14   36 1
    25   15   16 2
    26   15   17 1
    27   17   18 1
    28   17   20 1
    29   17   19 1
    30   19   20 1
    31   19   37 1
    32   19   38 1
    33   20   21 1
    34   20   22 1
    35   22   27 ar
    36   22   23 ar
    37   23   24 ar
    38   23   39 1
    39   24   25 ar
    40   24   40 1
    41   25   26 ar
    42   25   41 1
    43   26   27 ar
    44   26   42 1
    45   27   43 1
@<TRIPOS>MOLECULE
ZINC01091063
   42    44     0     0     0
SMALL
USER_CHARGES

@<TRIPOS>ATOM
      1 C1          9.7987    5.9874    0.1660 C.3       1 <0>        -0.0625
      2 O1          9.5044    4.9289    1.0798 O.3       1 <0>        -0.2120
      3 C2          8.4227    4.1552    0.8001 C.ar      1 <0>         0.1042
      4 C3          8.0790    3.1097    1.6448 C.ar      1 <0>        -0.1526
      5 C4          6.9792    2.3245    1.3580 C.ar      1 <0>        -0.0490
      6 C5          6.2209    2.5802    0.2304 C.ar      1 <0>        -0.1160
      7 C6          6.5646    3.6180   -0.6160 C.ar      1 <0>        -0.0779
      8 C7          7.6604    4.4094   -0.3309 C.ar      1 <0>        -0.2161
      9 C8          5.0214    1.7223   -0.0797 C.3       1 <0>        -0.0349
     10 H1          4.9114    0.9592    0.6908 H         1 <0>         0.1181
     11 C9          3.7655    2.5955   -0.1157 C.3       1 <0>        -0.2071
     12 C10         3.5110    3.1661    1.2557 C.2       1 <0>         0.3131
     13 O2          4.1950    2.8152    2.1959 O.2       1 <0>        -0.2870
     14 C11         2.4770    4.1088    1.4476 C.2       1 <0>        -0.3747
     15 C12         2.0807    4.7503    2.6169 C.2       1 <0>        -0.0833
     16 C13         1.0316    5.6261    2.5213 C.2       1 <0>        -0.2029
     17 C14         0.4447    5.8317    1.3109 C.2       1 <0>        -0.3164
     18 S1          1.3387    4.7884    0.2536 S.3       1 <0>         0.4202
     19 C15         5.2137    1.0493   -1.4403 C.3       1 <0>        -0.1762
     20 C16         3.9885    0.2014   -1.7249 C.2       1 <0>         0.3145
     21 O3          2.8798    0.6906   -1.7602 O.2       1 <0>        -0.3131
     22 N1          4.1783   -1.1183   -1.9361 N.am      1 <0>        -0.3442
     23 C17         5.3951   -1.6735   -1.9007 C.2       1 <0>         0.4057
     24 O4          5.4747   -2.8688   -2.1026 O.2       1 <0>        -0.3620
     25 N2          6.5306   -1.0085   -1.6587 N.am      1 <0>        -0.3471
     26 C18         6.5441    0.3205   -1.4225 C.2       1 <0>         0.3096
     27 O5          7.5808    0.9097   -1.2039 O.2       1 <0>        -0.2795
     28 H2          9.9843    5.5714   -0.8242 H         1 <0>         0.0684
     29 H3          8.9526    6.6729    0.1194 H         1 <0>         0.0665
     30 H4         10.6838    6.5252    0.5059 H         1 <0>         0.1066
     31 H5          8.6706    2.9101    2.5260 H         1 <0>         0.1441
     32 H6          6.7113    1.5105    2.0152 H         1 <0>         0.1388
     33 H7          5.9735    3.8127   -1.4986 H         1 <0>         0.1191
     34 H8          7.9257    5.2230   -0.9898 H         1 <0>         0.1326
     35 H9          2.9821    2.0412   -0.3968 H         1 <0>         0.1350
     36 H10         3.9088    3.4090   -0.8268 H         1 <0>         0.1112
     37 H11         2.5751    4.5628    3.5586 H         1 <0>         0.1642
     38 H12         0.6766    6.1504    3.3963 H         1 <0>         0.1480
     39 H13        -0.3812    6.4840    1.0683 H         1 <0>         0.1897
     40 H14         5.2653    1.8309   -2.1983 H         1 <0>         0.1573
     41 H15         3.4097   -1.6808   -2.1198 H         1 <0>         0.2733
     42 H16         7.3691   -1.4961   -1.6524 H         1 <0>         0.2741
@<TRIPOS>BOND
     1    1    2 1
     2    1   28 1
     3    1   29 1
     4    1   30 1
     5    2    3 1
     6    3    8 ar
     7    3    4 ar
     8    4    5 ar
     9    4   31 1
    10    5    6 ar
    11    5   32 1
    12    6    7 ar
    13    6    9 1
    14    7    8 ar
    15    7   33 1
    16    8   34 1
    17    9   10 1
    18    9   11 1
    19    9   19 1
    20   11   12 1
    21   11   35 1
    22   11   36 1
    23   12   13 2
    24   12   14 1
    25   14   18 1
    26   14   15 2
    27   15   16 1
    28   15   37 1
    29   16   17 2
    30   16   38 1
    31   17   18 1
    32   17   39 1
    33   19   26 1
    34   19   20 1
    35   19   40 1
    36   20   21 2
    37   20   22 am
    38   22   23 am
    39   22   41 1
    40   23   24 2
    41   23   25 am
    42   25   26 am
    43   25   42 1
    44   26   27 2
@<TRIPOS>MOLECULE
ZINC01097629
   43    45     0     0     0
SMALL
USER_CHARGES

@<TRIPOS>ATOM
      1 C1          1.7582    1.3816   -9.8197 C.ar      1 <0>        -0.1306
      2 C2          1.3220    2.5852  -10.3431 C.ar      1 <0>        -0.1137
      3 C3          1.4635    3.7490   -9.6137 C.ar      1 <0>        -0.1084
      4 C4          2.0455    3.7101   -8.3524 C.ar      1 <0>        -0.2061
      5 C5          2.4883    2.4999   -7.8322 C.ar      1 <0>        -0.1388
      6 C6          2.3383    1.3392   -8.5649 C.ar      1 <0>        -0.1116
      7 S1          2.2282    5.1927   -7.4179 S.3       1 <0>         0.2670
      8 C7          3.1429    4.6915   -5.9978 C.ar      1 <0>        -0.2068
      9 C8          2.4782    4.3515   -4.8271 C.ar      1 <0>        -0.1208
     10 C9          3.2024    3.9570   -3.7115 C.ar      1 <0>         0.1048
     11 C10         4.5905    3.9084   -3.7673 C.ar      1 <0>        -0.1309
     12 C11         5.2487    4.2417   -4.9353 C.ar      1 <0>        -0.0774
     13 C12         4.5310    4.6355   -6.0482 C.ar      1 <0>        -0.0794
     14 N1          6.7266    4.1828   -4.9927 N.pl3     1 <0>         0.5483
     15 O1          7.3085    4.4812   -6.0202 O.2       1 <0>        -0.3478
     16 O2          7.3607    3.8358   -4.0124 O.3       1 <0>        -0.3546
     17 N2          2.5377    3.6147   -2.5317 N.pl3     1 <0>        -0.3941
     18 C13         3.3032    3.1982   -1.3541 C.3       1 <0>         0.1614
     19 H1          4.3076    3.6184   -1.4061 H         1 <0>         0.1476
     20 C14         2.6049    3.7000   -0.0875 C.3       1 <0>        -0.1936
     21 C15         1.2174    3.0583    0.0095 C.3       1 <0>         0.0598
     22 H2          0.6103    3.3723   -0.8395 H         1 <0>         0.0735
     23 C16         1.3697    1.5342   -0.0053 C.3       1 <0>        -0.0319
     24 H3          1.9340    1.2160    0.8714 H         1 <0>         0.1015
     25 C17         2.1158    1.1160   -1.2750 C.3       1 <0>        -0.0485
     26 O3          3.3846    1.7719   -1.3182 O.3       1 <0>        -0.2726
     27 O4          0.0772    0.9249    0.0117 O.3       1 <0>        -0.3541
     28 O5          0.5871    3.4639    1.2262 O.3       1 <0>        -0.3439
     29 H4          1.6459    0.4728  -10.3923 H         1 <0>         0.1321
     30 H5          0.8698    2.6147  -11.3235 H         1 <0>         0.1345
     31 H6          1.1220    4.6884  -10.0228 H         1 <0>         0.1392
     32 H7          2.9455    2.4667   -6.8542 H         1 <0>         0.1349
     33 H8          2.6784    0.3977   -8.1595 H         1 <0>         0.1330
     34 H9          1.3999    4.3944   -4.7849 H         1 <0>         0.1552
     35 H10         5.1549    3.6053   -2.8978 H         1 <0>         0.1716
     36 H11         5.0488    4.8997   -6.9583 H         1 <0>         0.1783
     37 H12         1.5693    3.6527   -2.4921 H         1 <0>         0.2372
     38 H13         2.5024    4.7842   -0.1333 H         1 <0>         0.1160
     39 H14         3.1951    3.4257    0.7869 H         1 <0>         0.1233
     40 H15         2.2647    0.0362   -1.2702 H         1 <0>         0.1138
     41 H16         1.5306    1.3985   -2.1501 H         1 <0>         0.0816
     42 H17         0.0980   -0.0418    0.0036 H         1 <0>         0.2208
     43 H18        -0.2944    3.0885    1.3567 H         1 <0>         0.2302
@<TRIPOS>BOND
     1    1    6 ar
     2    1    2 ar
     3    1   29 1
     4    2    3 ar
     5    2   30 1
     6    3    4 ar
     7    3   31 1
     8    4    5 ar
     9    4    7 1
    10    5    6 ar
    11    5   32 1
    12    6   33 1
    13    7    8 1
    14    8   13 ar
    15    8    9 ar
    16    9   10 ar
    17    9   34 1
    18   10   11 ar
    19   10   17 1
    20   11   12 ar
    21   11   35 1
    22   12   13 ar
    23   12   14 1
    24   13   36 1
    25   14   15 2
    26   14   16 1
    27   17   18 1
    28   17   37 1
    29   18   19 1
    30   18   26 1
    31   18   20 1
    32   20   21 1
    33   20   38 1
    34   20   39 1
    35   21   22 1
    36   21   23 1
    37   21   28 1
    38   23   24 1
    39   23   25 1
    40   23   27 1
    41   25   26 1
    42   25   40 1
    43   25   41 1
    44   27   42 1
    45   28   43 1
@<TRIPOS>MOLECULE
ZINC01111842
   47    50     0     0     0
SMALL
USER_CHARGES

@<TRIPOS>ATOM
      1 C1          3.5696    6.0861    1.9746 C.ar      1 <0>        -0.1298
      2 C2          3.6509    5.1854    3.0201 C.ar      1 <0>        -0.1241
      3 C3          3.6696    3.8274    2.7624 C.ar      1 <0>        -0.1251
      4 C4          3.6061    3.3701    1.4595 C.ar      1 <0>        -0.0759
      5 C5          3.5296    4.2710    0.4138 C.ar      1 <0>        -0.1287
      6 C6          3.5065    5.6289    0.6716 C.ar      1 <0>        -0.1255
      7 C7          3.6264    1.8897    1.1786 C.3       1 <0>        -0.1195
      8 C8          2.1936    1.3532    1.1662 C.3       1 <0>        -0.1009
      9 C9          1.4257    1.9778   -0.0009 C.3       1 <0>        -0.1782
     10 C10        -0.0178    1.4650    0.0101 C.3       1 <0>        -0.0002
     11 N1          0.0021   -0.0041    0.0020 N.pl3     1 <0>        -0.8365
     12 C11         0.7858   -0.7056    1.0279 C.3       1 <0>         0.0008
     13 C12         2.2203   -0.1685    1.0054 C.3       1 <0>        -0.1754
     14 S1         -0.8432   -0.8531   -1.1413 S.o2      1 <0>         2.7656
     15 O1         -1.0946   -2.1382   -0.5894 O.2       1 <0>        -0.9130
     16 O2         -1.8866    0.0000   -1.5916 O.2       1 <0>        -0.9142
     17 C13         0.2358   -1.0964   -2.5129 C.ar      1 <0>        -0.7570
     18 C14         1.0396   -2.2222   -2.5663 C.ar      1 <0>        -0.0264
     19 C15         1.8882   -2.4219   -3.6374 C.ar      1 <0>        -0.1488
     20 C16         1.9352   -1.4907   -4.6637 C.ar      1 <0>         0.0498
     21 C17         1.1244   -0.3552   -4.6098 C.ar      1 <0>        -0.0233
     22 C18         0.2718   -0.1659   -3.5328 C.ar      1 <0>        -0.0218
     23 N2          1.3877    0.3824   -5.7617 N.am      1 <0>        -0.2954
     24 H1          0.9730    1.2254   -6.0031 H         1 <0>         0.2722
     25 C19         2.3158   -0.2742   -6.4830 C.2       1 <0>         0.3903
     26 O3          2.7689    0.0998   -7.5486 O.2       1 <0>        -0.3727
     27 N3          2.6659   -1.4079   -5.8466 N.am      1 <0>        -0.2952
     28 H2          3.3164   -2.0563   -6.1586 H         1 <0>         0.2717
     29 H3          3.5550    7.1471    2.1759 H         1 <0>         0.1297
     30 H4          3.7002    5.5426    4.0381 H         1 <0>         0.1299
     31 H5          3.7335    3.1236    3.5792 H         1 <0>         0.1296
     32 H6          3.4843    3.9138   -0.6045 H         1 <0>         0.1291
     33 H7          3.4426    6.3326   -0.1451 H         1 <0>         0.1296
     34 H8          4.1983    1.3805    1.9544 H         1 <0>         0.0901
     35 H9          4.0900    1.7102    0.2086 H         1 <0>         0.0901
     36 H10         1.7013    1.6107    2.1040 H         1 <0>         0.0985
     37 H11         1.9032    1.7002   -0.9406 H         1 <0>         0.0843
     38 H12         1.4271    3.0629    0.1018 H         1 <0>         0.1015
     39 H13        -0.5414    1.8282   -0.8743 H         1 <0>         0.1052
     40 H14        -0.5244    1.8187    0.9081 H         1 <0>         0.0929
     41 H15         0.3448   -0.5290    2.0089 H         1 <0>         0.0917
     42 H16         0.7925   -1.7746    0.8151 H         1 <0>         0.1061
     43 H17         2.7873   -0.6110    1.8245 H         1 <0>         0.0895
     44 H18         2.6903   -0.4259    0.0562 H         1 <0>         0.0871
     45 H19         1.0032   -2.9473   -1.7667 H         1 <0>         0.1557
     46 H20         2.5141   -3.3013   -3.6755 H         1 <0>         0.1422
     47 H21        -0.3600    0.7089   -3.4899 H         1 <0>         0.1545
@<TRIPOS>BOND
     1    1    6 ar
     2    1    2 ar
     3    1   29 1
     4    2    3 ar
     5    2   30 1
     6    3    4 ar
     7    3   31 1
     8    4    5 ar
     9    4    7 1
    10    5    6 ar
    11    5   32 1
    12    6   33 1
    13    7    8 1
    14    7   34 1
    15    7   35 1
    16    8   13 1
    17    8    9 1
    18    8   36 1
    19    9   10 1
    20    9   37 1
    21    9   38 1
    22   10   11 1
    23   10   39 1
    24   10   40 1
    25   11   12 1
    26   11   14 1
    27   12   13 1
    28   12   41 1
    29   12   42 1
    30   13   43 1
    31   13   44 1
    32   14   15 2
    33   14   16 2
    34   14   17 1
    35   17   22 ar
    36   17   18 ar
    37   18   19 ar
    38   18   45 1
    39   19   20 ar
    40   19   46 1
    41   20   27 1
    42   20   21 ar
    43   21   22 ar
    44   21   23 1
    45   22   47 1
    46   23   24 1
    47   23   25 am
    48   25   26 2
    49   25   27 am
    50   27   28 1
@<TRIPOS>MOLECULE
ZINC01118516
   45    47     0     0     0
SMALL
USER_CHARGES

@<TRIPOS>ATOM
      1 C1          1.4173   -4.8729    3.5270 C.3       1 <0>        -0.0630
      2 O1          0.8522   -4.3097    4.7125 O.3       1 <0>        -0.2079
      3 C2          0.7365   -2.9563    4.7581 C.ar      1 <0>         0.0819
      4 C3          1.1643   -2.1867    3.6843 C.ar      1 <0>        -0.1913
      5 C4          1.0448   -0.8098    3.7228 C.ar      1 <0>        -0.1066
      6 C5          0.5089   -0.1901    4.8331 C.ar      1 <0>        -0.1168
      7 C6          0.0808   -0.9550    5.9200 C.ar      1 <0>        -0.0761
      8 C7          0.1973   -2.3453    5.8773 C.ar      1 <0>        -0.0966
      9 C8         -0.4938   -0.2954    7.1103 C.2       1 <0>         0.3516
     10 O2         -0.8660   -0.9631    8.0544 O.2       1 <0>        -0.3364
     11 O3         -0.6051    1.0469    7.1488 O.3       1 <0>        -0.1924
     12 C9         -1.2335    1.5825    8.2263 C.ar      1 <0>         0.0666
     13 C10        -2.5740    1.9401    8.1393 C.ar      1 <0>        -0.1045
     14 C11        -3.2175    2.4830    9.2274 C.ar      1 <0>        -0.0630
     15 C12        -2.5197    2.6769   10.4291 C.ar      1 <0>        -0.0733
     16 C13        -1.1670    2.3154   10.5150 C.ar      1 <0>        -0.1733
     17 C14        -0.5329    1.7668    9.4192 C.ar      1 <0>         0.0871
     18 O4          0.7768    1.4103    9.5000 O.3       1 <0>        -0.1979
     19 C15         1.4321    1.6269   10.7513 C.3       1 <0>        -0.0643
     20 C16        -3.2004    3.2545   11.5884 C.2       1 <0>         0.0973
     21 C17        -4.0135    4.3602   11.4319 C.2       1 <0>        -0.2807
     22 C18        -4.0516    5.1161   10.1641 C.2       1 <0>         0.3464
     23 O5         -3.3640    4.7838    9.2174 O.2       1 <0>        -0.3173
     24 N1         -4.8745    6.1820   10.0828 N.am      1 <0>        -0.3413
     25 C19        -5.6332    6.5627   11.1200 C.2       1 <0>         0.4062
     26 O6         -6.3482    7.5357   10.9824 O.2       1 <0>        -0.3645
     27 N2         -5.6458    5.9289   12.3008 N.am      1 <0>        -0.3410
     28 C20        -4.8786    4.8425   12.5269 C.2       1 <0>         0.3522
     29 O7         -4.8993    4.2758   13.6029 O.2       1 <0>        -0.3255
     30 H1          2.4274   -4.4877    3.3875 H         1 <0>         0.0684
     31 H2          0.8035   -4.6024    2.6679 H         1 <0>         0.0683
     32 H3          1.4521   -5.9583    3.6213 H         1 <0>         0.1116
     33 H4          1.5883   -2.6658    2.8142 H         1 <0>         0.1379
     34 H5          1.3756   -0.2172    2.8827 H         1 <0>         0.1366
     35 H6          0.4211    0.8859    4.8617 H         1 <0>         0.1507
     36 H7         -0.1323   -2.9426    6.7146 H         1 <0>         0.1686
     37 H8         -3.1120    1.7909    7.2148 H         1 <0>         0.1512
     38 H9         -4.2589    2.7602    9.1565 H         1 <0>         0.1409
     39 H10        -0.6247    2.4619   11.4375 H         1 <0>         0.1432
     40 H11         0.9250    1.0576   11.5303 H         1 <0>         0.0703
     41 H12         2.4695    1.3003   10.6795 H         1 <0>         0.1136
     42 H13         1.4016    2.6881   10.9985 H         1 <0>         0.0673
     43 H14        -3.0672    2.8163   12.5665 H         1 <0>         0.1671
     44 H15        -4.9149    6.6872    9.2558 H         1 <0>         0.2740
     45 H16        -6.2203    6.2588   13.0093 H         1 <0>         0.2747
@<TRIPOS>BOND
     1    1    2 1
     2    1   30 1
     3    1   31 1
     4    1   32 1
     5    2    3 1
     6    3    8 ar
     7    3    4 ar
     8    4    5 ar
     9    4   33 1
    10    5    6 ar
    11    5   34 1
    12    6    7 ar
    13    6   35 1
    14    7    8 ar
    15    7    9 1
    16    8   36 1
    17    9   10 2
    18    9   11 1
    19   11   12 1
    20   12   17 ar
    21   12   13 ar
    22   13   14 ar
    23   13   37 1
    24   14   15 ar
    25   14   38 1
    26   15   16 ar
    27   15   20 1
    28   16   17 ar
    29   16   39 1
    30   17   18 1
    31   18   19 1
    32   19   40 1
    33   19   41 1
    34   19   42 1
    35   20   21 2
    36   20   43 1
    37   21   28 1
    38   21   22 1
    39   22   23 2
    40   22   24 am
    41   24   25 am
    42   24   44 1
    43   25   26 2
    44   25   27 am
    45   27   28 am
    46   27   45 1
    47   28   29 2
@<TRIPOS>MOLECULE
ZINC01121013
   43    46     0     0     0
SMALL
USER_CHARGES

@<TRIPOS>ATOM
      1 C1         -6.2149   -0.5535   -1.6747 C.3       1 <0>        -0.0617
      2 O1         -4.8272   -0.2213   -1.7527 O.3       1 <0>        -0.2125
      3 C2         -4.3575    0.6835   -0.8528 C.ar      1 <0>         0.0565
      4 C3         -5.2173    1.2381    0.0852 C.ar      1 <0>        -0.1710
      5 C4         -4.7468    2.1584    1.0023 C.ar      1 <0>        -0.1859
      6 C5         -3.4115    2.5275    0.9942 C.ar      1 <0>         0.0911
      7 C6         -2.5426    1.9763    0.0487 C.ar      1 <0>        -0.0059
      8 C7         -3.0223    1.0495   -0.8735 C.ar      1 <0>        -0.1041
      9 C8         -1.1128    2.3725    0.0313 C.2       1 <0>         0.0130
     10 C9         -0.0193    1.5039   -0.0384 C.2       1 <0>        -0.2655
     11 C10         1.1193    2.2564   -0.0271 C.2       1 <0>         0.1134
     12 N1          0.7536    3.5532    0.0433 N.pl3     1 <0>        -0.1736
     13 H1          1.3727    4.3381    0.0682 H         1 <0>         0.2880
     14 N2         -0.6486    3.6070    0.0754 N.2       1 <0>        -0.0340
     15 O2          2.3593    1.7092   -0.0808 O.3       1 <0>        -0.1340
     16 C11         2.4537    0.4082   -0.4230 C.2       1 <0>         0.2823
     17 C12         1.4006   -0.4382   -0.4590 C.2       1 <0>        -0.2659
     18 C13        -0.0001   -0.0011   -0.1095 C.3       1 <0>         0.1425
     19 H2         -0.6942   -0.3419   -0.8777 H         1 <0>         0.1273
     20 C14        -0.3957   -0.5783    1.2252 C.2       1 <0>        -0.0425
     21 C15        -1.4527   -1.3781    1.4543 C.2       1 <0>        -0.2080
     22 C16        -1.4444   -1.6826    2.8349 C.2       1 <0>        -0.2190
     23 C17        -0.3876   -1.0439    3.3684 C.2       1 <0>        -0.1049
     24 O3          0.2439   -0.3766    2.3888 O.3       1 <0>        -0.0470
     25 C18         1.6229   -1.7999   -0.8426 C.1       1 <0>        -0.0626
     26 N3          1.7992   -2.8801   -1.1468 N.1       1 <0>        -0.0741
     27 N4          3.6911   -0.0849   -0.7545 N.pl3     1 <0>        -0.3878
     28 O4         -2.9485    3.4280    1.9012 O.3       1 <0>        -0.1942
     29 C19        -3.8932    3.9499    2.8377 C.3       1 <0>        -0.0637
     30 H3         -6.4328   -0.9758   -0.6938 H         1 <0>         0.0668
     31 H4         -6.8127    0.3456   -1.8242 H         1 <0>         0.0665
     32 H5         -6.4576   -1.2837   -2.4468 H         1 <0>         0.1088
     33 H6         -6.2580    0.9495    0.0981 H         1 <0>         0.1366
     34 H7         -5.4201    2.5868    1.7299 H         1 <0>         0.1389
     35 H8         -2.3540    0.6169   -1.6033 H         1 <0>         0.1531
     36 H9         -2.1689   -1.7234    0.7233 H         1 <0>         0.1569
     37 H10        -2.1531   -2.3049    3.3610 H         1 <0>         0.1513
     38 H11        -0.0965   -1.0640    4.4083 H         1 <0>         0.1933
     39 H12         3.7907   -1.0166   -1.0054 H         1 <0>         0.2616
     40 H13         4.4660    0.4984   -0.7380 H         1 <0>         0.2287
     41 H14        -4.6933    4.4597    2.3010 H         1 <0>         0.0660
     42 H15        -4.3126    3.1326    3.4244 H         1 <0>         0.0660
     43 H16        -3.3944    4.6554    3.5022 H         1 <0>         0.1094
@<TRIPOS>BOND
     1    1    2 1
     2    1   30 1
     3    1   31 1
     4    1   32 1
     5    2    3 1
     6    3    8 ar
     7    3    4 ar
     8    4    5 ar
     9    4   33 1
    10    5    6 ar
    11    5   34 1
    12    6    7 ar
    13    6   28 1
    14    7    8 ar
    15    7    9 1
    16    8   35 1
    17    9   14 2
    18    9   10 1
    19   10   18 1
    20   10   11 2
    21   11   12 1
    22   11   15 1
    23   12   13 1
    24   12   14 1
    25   15   16 1
    26   16   17 2
    27   16   27 1
    28   17   18 1
    29   17   25 1
    30   18   19 1
    31   18   20 1
    32   20   24 1
    33   20   21 2
    34   21   22 1
    35   21   36 1
    36   22   23 2
    37   22   37 1
    38   23   24 1
    39   23   38 1
    40   25   26 3
    41   27   39 1
    42   27   40 1
    43   28   29 1
    44   29   41 1
    45   29   42 1
    46   29   43 1
@<TRIPOS>MOLECULE
ZINC01121015
   43    46     0     0     0
SMALL
USER_CHARGES

@<TRIPOS>ATOM
      1 C1          2.6392   -2.0960    1.7876 C.3       1 <0>        -0.0617
      2 O1          2.6743   -0.6691    1.8577 O.3       1 <0>        -0.2125
      3 C2          1.9439    0.0124    0.9352 C.ar      1 <0>         0.0565
      4 C3          1.2094   -0.6811   -0.0168 C.ar      1 <0>        -0.1711
      5 C4          0.4647    0.0052   -0.9569 C.ar      1 <0>        -0.1859
      6 C5          0.4478    1.3904   -0.9541 C.ar      1 <0>         0.0910
      7 C6          1.1853    2.0937    0.0020 C.ar      1 <0>        -0.0059
      8 C7          1.9338    1.3969    0.9474 C.ar      1 <0>        -0.1042
      9 C8          1.1715    3.5774    0.0096 C.2       1 <0>         0.0127
     10 C9          2.2909    4.4101    0.1019 C.2       1 <0>        -0.2654
     11 C10         1.8580    5.7042    0.0759 C.2       1 <0>         0.1132
     12 N1          0.5131    5.6852   -0.0306 N.pl3     1 <0>        -0.1735
     13 H1         -0.0849    6.4857   -0.0706 H         1 <0>         0.2880
     14 N2          0.1009    4.3443   -0.0753 N.2       1 <0>        -0.0338
     15 O2          2.7048    6.7612    0.1507 O.3       1 <0>        -0.1339
     16 C11         3.9764    6.5175    0.5275 C.2       1 <0>         0.2823
     17 C12         4.5216    5.2819    0.5800 C.2       1 <0>        -0.2659
     18 C13         3.7475    4.0406    0.2123 C.3       1 <0>         0.1425
     19 H2          3.8773    3.2836    0.9857 H         1 <0>         0.1274
     20 C14         4.2386    3.5080   -1.1092 C.2       1 <0>        -0.0423
     21 C15         4.7496    2.2821   -1.3222 C.2       1 <0>        -0.2081
     22 C16         5.0782    2.2082   -2.6954 C.2       1 <0>        -0.2190
     23 C17         4.7483    3.3934   -3.2393 C.2       1 <0>        -0.1049
     24 O3          4.2348    4.1747   -2.2750 O.3       1 <0>        -0.0470
     25 C18         5.8837    5.1462    1.0005 C.1       1 <0>        -0.0626
     26 N3          6.9643    5.0386    1.3341 N.1       1 <0>        -0.0741
     27 N4          4.7628    7.5866    0.8785 N.pl3     1 <0>        -0.3878
     28 O4         -0.2805    2.0644   -1.8833 O.3       1 <0>        -0.1941
     29 C19        -1.0049    1.2804   -2.8333 C.3       1 <0>        -0.0637
     30 H3          1.6129   -2.4408    1.9137 H         1 <0>         0.0664
     31 H4          3.0153   -2.4215    0.8177 H         1 <0>         0.0668
     32 H5          3.2626   -2.5140    2.5780 H         1 <0>         0.1088
     33 H6          1.2204   -1.7610   -0.0230 H         1 <0>         0.1366
     34 H7         -0.1050   -0.5394   -1.6954 H         1 <0>         0.1389
     35 H8          2.5054    1.9356    1.6888 H         1 <0>         0.1531
     36 H9          4.8828    1.5034   -0.5858 H         1 <0>         0.1569
     37 H10         5.5113    1.3626   -3.2090 H         1 <0>         0.1513
     38 H11         4.8706    3.6683   -4.2765 H         1 <0>         0.1933
     39 H12         5.6816    7.4429    1.1542 H         1 <0>         0.2615
     40 H13         4.3996    8.4856    0.8509 H         1 <0>         0.2287
     41 H14        -1.5415    1.9402   -3.5151 H         1 <0>         0.1095
     42 H15        -0.3090    0.6612   -3.3994 H         1 <0>         0.0660
     43 H16        -1.7166    0.6418   -2.3101 H         1 <0>         0.0660
@<TRIPOS>BOND
     1    1    2 1
     2    1   30 1
     3    1   31 1
     4    1   32 1
     5    2    3 1
     6    3    8 ar
     7    3    4 ar
     8    4    5 ar
     9    4   33 1
    10    5    6 ar
    11    5   34 1
    12    6    7 ar
    13    6   28 1
    14    7    8 ar
    15    7    9 1
    16    8   35 1
    17    9   14 2
    18    9   10 1
    19   10   18 1
    20   10   11 2
    21   11   12 1
    22   11   15 1
    23   12   13 1
    24   12   14 1
    25   15   16 1
    26   16   17 2
    27   16   27 1
    28   17   18 1
    29   17   25 1
    30   18   19 1
    31   18   20 1
    32   20   24 1
    33   20   21 2
    34   21   22 1
    35   21   36 1
    36   22   23 2
    37   22   37 1
    38   23   24 1
    39   23   38 1
    40   25   26 3
    41   27   39 1
    42   27   40 1
    43   28   29 1
    44   29   41 1
    45   29   42 1
    46   29   43 1
@<TRIPOS>MOLECULE
ZINC01122918
   42    44     0     0     0
SMALL
USER_CHARGES

@<TRIPOS>ATOM
      1 C1          5.2691    1.8120   -6.1245 C.3       1 <0>        -0.0657
      2 O1          4.2571    0.9149   -5.6628 O.3       1 <0>        -0.2059
      3 C2          3.8840    1.0233   -4.3605 C.ar      1 <0>         0.1859
      4 C3          4.4800    1.9744   -3.5441 C.ar      1 <0>        -0.2765
      5 C4          4.0969    2.0891   -2.2217 C.ar      1 <0>         0.0516
      6 C5          3.1277    1.2500   -1.7055 C.ar      1 <0>        -0.8212
      7 C6          2.5288    0.2976   -2.5176 C.ar      1 <0>         0.2183
      8 C7          2.9076    0.1843   -3.8466 C.ar      1 <0>        -0.2736
      9 O2          1.5721   -0.5238   -2.0108 O.3       1 <0>        -0.2161
     10 C8          0.9988   -1.4805   -2.9040 C.3       1 <0>        -0.0619
     11 S1          2.6469    1.3946   -0.0166 S.o2      1 <0>         2.7863
     12 O3          3.4096    2.4603    0.5330 O.2       1 <0>        -0.8815
     13 O4          2.6708    0.0817    0.5263 O.2       1 <0>        -0.8863
     14 N1          1.0655    1.8858    0.0020 N.pl3     1 <0>        -0.6108
     15 C9         -0.0126    1.0758    0.0080 C.2       1 <0>        -0.0123
     16 C10        -1.1249    1.8651    0.0169 C.2       1 <0>        -0.2130
     17 C11        -0.6913    3.2107    0.0259 C.2       1 <0>         0.1190
     18 N2          0.6195    3.2128    0.0134 N.2       1 <0>        -0.1155
     19 N3         -1.5153    4.3403    0.0403 N.pl3     1 <0>        -0.3951
     20 C12        -2.5333    1.3968    0.0194 C.ar      1 <0>        -0.0145
     21 C13        -2.9567    0.4509   -0.9118 C.ar      1 <0>        -0.0979
     22 C14        -4.2657    0.0140   -0.9022 C.ar      1 <0>        -0.1647
     23 C15        -5.1611    0.5231    0.0241 C.ar      1 <0>         0.0946
     24 C16        -4.7458    1.4679    0.9481 C.ar      1 <0>        -0.1639
     25 C17        -3.4372    1.9062    0.9493 C.ar      1 <0>        -0.1044
     26 F1         -6.4432    0.0971    0.0262 F         1 <0>        -0.1063
     27 H1          5.4722    1.6194   -7.1780 H         1 <0>         0.1136
     28 H2          4.9269    2.8397   -6.0024 H         1 <0>         0.0745
     29 H3          6.1801    1.6611   -5.5454 H         1 <0>         0.0747
     30 H4          5.2406    2.6285   -3.9442 H         1 <0>         0.1443
     31 H5          4.5587    2.8327   -1.5892 H         1 <0>         0.1654
     32 H6          2.4424   -0.5562   -4.4804 H         1 <0>         0.1536
     33 H7          0.5271   -0.9615   -3.7384 H         1 <0>         0.0743
     34 H8          1.7807   -2.1395   -3.2813 H         1 <0>         0.0815
     35 H9          0.2512   -2.0703   -2.3736 H         1 <0>         0.1141
     36 H10         0.0021   -0.0041    0.0020 H         1 <0>         0.1979
     37 H11        -1.1226    5.2272    0.0412 H         1 <0>         0.2332
     38 H12        -2.4798    4.2369    0.0492 H         1 <0>         0.2348
     39 H13        -2.2603    0.0568   -1.6372 H         1 <0>         0.1367
     40 H14        -4.5936   -0.7225   -1.6208 H         1 <0>         0.1445
     41 H15        -5.4472    1.8625    1.6683 H         1 <0>         0.1461
     42 H16        -3.1143    2.6431    1.6697 H         1 <0>         0.1428
@<TRIPOS>BOND
     1    1    2 1
     2    1   27 1
     3    1   28 1
     4    1   29 1
     5    2    3 1
     6    3    8 ar
     7    3    4 ar
     8    4    5 ar
     9    4   30 1
    10    5    6 ar
    11    5   31 1
    12    6    7 ar
    13    6   11 1
    14    7    8 ar
    15    7    9 1
    16    8   32 1
    17    9   10 1
    18   10   33 1
    19   10   34 1
    20   10   35 1
    21   11   12 2
    22   11   13 2
    23   11   14 1
    24   14   18 1
    25   14   15 1
    26   15   16 2
    27   15   36 1
    28   16   17 1
    29   16   20 1
    30   17   18 2
    31   17   19 1
    32   19   37 1
    33   19   38 1
    34   20   25 ar
    35   20   21 ar
    36   21   22 ar
    37   21   39 1
    38   22   23 ar
    39   22   40 1
    40   23   24 ar
    41   23   26 1
    42   24   25 ar
    43   24   41 1
    44   25   42 1
@<TRIPOS>MOLECULE
ZINC01123416
   41    43     0     0     0
SMALL
USER_CHARGES

@<TRIPOS>ATOM
      1 C1         -5.7223   -4.8083   -1.1533 C.3       1 <0>        -0.1733
      2 C2         -5.3882   -3.5643   -0.3711 C.ar      1 <0>        -0.1145
      3 C3         -4.3357   -2.7609   -0.7705 C.ar      1 <0>        -0.1026
      4 C4         -4.0285   -1.6176   -0.0611 C.ar      1 <0>        -0.1348
      5 C5         -4.7737   -1.2776    1.0664 C.ar      1 <0>         0.0202
      6 C6         -5.8333   -2.0886    1.4657 C.ar      1 <0>        -0.1655
      7 C7         -6.1366   -3.2291    0.7453 C.ar      1 <0>         0.0995
      8 F1         -7.1642   -4.0171    1.1304 F         1 <0>        -0.1050
      9 C8         -4.4433   -0.0523    1.8355 C.2       1 <0>        -0.2139
     10 C9         -3.2085    0.3049    2.2923 C.2       1 <0>        -0.0104
     11 N1         -3.3346    1.4809    2.9392 N.pl3     1 <0>        -0.6112
     12 N2         -4.6793    1.8676    2.8926 N.2       1 <0>        -0.1159
     13 C10        -5.3505    0.9586    2.2282 C.2       1 <0>         0.1207
     14 N3         -6.7225    0.9817    1.9601 N.pl3     1 <0>        -0.3939
     15 S1         -2.1092    2.3211    3.6704 S.o2      1 <0>         2.7831
     16 O1         -1.0960    1.3742    3.9804 O.2       1 <0>        -0.8846
     17 O2         -2.7138    3.1416    4.6607 O.2       1 <0>        -0.8777
     18 C11        -1.4295    3.4084    2.4619 C.ar      1 <0>        -0.7836
     19 C12        -1.5307    4.7764    2.6276 C.ar      1 <0>         0.0150
     20 C13        -1.0031    5.6299    1.6767 C.ar      1 <0>        -0.1858
     21 C14        -0.3671    5.1173    0.5609 C.ar      1 <0>        -0.0331
     22 C15        -0.2583    3.7506    0.3934 C.ar      1 <0>        -0.2387
     23 C16        -0.7874    2.8918    1.3462 C.ar      1 <0>         0.1856
     24 O3         -0.6816    1.5467    1.1837 O.3       1 <0>        -0.2194
     25 C17        -0.0127    1.0858    0.0080 C.3       1 <0>        -0.0600
     26 H1         -6.4425   -4.5641   -1.9342 H         1 <0>         0.0894
     27 H2         -4.8150   -5.2065   -1.6076 H         1 <0>         0.0829
     28 H3         -6.1510   -5.5542   -0.4840 H         1 <0>         0.0933
     29 H4         -3.7558   -3.0263   -1.6421 H         1 <0>         0.1363
     30 H5         -3.2088   -0.9893   -0.3770 H         1 <0>         0.1335
     31 H6         -6.4166   -1.8273    2.3364 H         1 <0>         0.1509
     32 H7         -2.2940   -0.2539    2.1592 H         1 <0>         0.1982
     33 H8         -7.1315    0.2572    1.4613 H         1 <0>         0.2361
     34 H9         -7.2654    1.7222    2.2728 H         1 <0>         0.2335
     35 H10        -2.0267    5.1791    3.4983 H         1 <0>         0.1647
     36 H11        -1.0875    6.6988    1.8056 H         1 <0>         0.1407
     37 H12         0.0446    5.7862   -0.1804 H         1 <0>         0.1353
     38 H13         0.2380    3.3507   -0.4785 H         1 <0>         0.1402
     39 H14         0.0021   -0.0041    0.0020 H         1 <0>         0.1144
     40 H15         1.0099    1.4631    0.0003 H         1 <0>         0.0787
     41 H16        -0.5399    1.4469   -0.8751 H         1 <0>         0.0717
@<TRIPOS>BOND
     1    1    2 1
     2    1   26 1
     3    1   27 1
     4    1   28 1
     5    2    7 ar
     6    2    3 ar
     7    3    4 ar
     8    3   29 1
     9    4    5 ar
    10    4   30 1
    11    5    6 ar
    12    5    9 1
    13    6    7 ar
    14    6   31 1
    15    7    8 1
    16    9   13 1
    17    9   10 2
    18   10   11 1
    19   10   32 1
    20   11   12 1
    21   11   15 1
    22   12   13 2
    23   13   14 1
    24   14   33 1
    25   14   34 1
    26   15   16 2
    27   15   17 2
    28   15   18 1
    29   18   23 ar
    30   18   19 ar
    31   19   20 ar
    32   19   35 1
    33   20   21 ar
    34   20   36 1
    35   21   22 ar
    36   21   37 1
    37   22   23 ar
    38   22   38 1
    39   23   24 1
    40   24   25 1
    41   25   39 1
    42   25   40 1
    43   25   41 1
@<TRIPOS>MOLECULE
ZINC01123502
   41    43     0     0     0
SMALL
USER_CHARGES

@<TRIPOS>ATOM
      1 C1         -5.3327   -5.9677    6.5883 C.3       1 <0>        -0.2120
      2 C2         -5.5518   -5.1142    5.3375 C.3       1 <0>        -0.0190
      3 O1         -5.3217   -3.7395    5.6526 O.3       1 <0>        -0.2071
      4 C3         -5.4753   -2.8414    4.6442 C.ar      1 <0>         0.1573
      5 C4         -5.2677   -1.4901    4.8798 C.ar      1 <0>        -0.1828
      6 C5         -5.4249   -0.5791    3.8532 C.ar      1 <0>         0.0054
      7 C6         -5.7883   -1.0131    2.5918 C.ar      1 <0>        -0.8038
      8 C7         -6.0012   -2.3588    2.3558 C.ar      1 <0>         0.0254
      9 C8         -5.8403   -3.2743    3.3777 C.ar      1 <0>        -0.2466
     10 S1         -5.9873    0.1513    1.2844 S.o2      1 <0>         2.7747
     11 O2         -6.2679    1.4034    1.8950 O.2       1 <0>        -0.9011
     12 O3         -6.8612   -0.4471    0.3371 O.2       1 <0>        -0.8717
     13 N1         -4.5167    0.3070    0.5393 N.pl3     1 <0>        -0.6152
     14 C9         -3.5530    1.1899    0.8714 C.2       1 <0>        -0.0293
     15 C10        -2.5050    1.0007    0.0193 C.2       1 <0>        -0.1989
     16 C11        -2.8548   -0.0515   -0.8578 C.2       1 <0>         0.1198
     17 N2         -4.0591   -0.4595   -0.5391 N.2       1 <0>        -0.1144
     18 N3         -2.0569   -0.5660   -1.8843 N.pl3     1 <0>        -0.3935
     19 C12        -1.2279    1.7570    0.0174 C.ar      1 <0>        -0.0221
     20 C13        -0.0126    1.0758    0.0080 C.ar      1 <0>        -0.1052
     21 C14         1.1724    1.7830    0.0004 C.ar      1 <0>        -0.1656
     22 C15         1.1548    3.1682    0.0071 C.ar      1 <0>         0.0967
     23 C16        -0.0513    3.8494    0.0218 C.ar      1 <0>        -0.1631
     24 C17        -1.2410    3.1502    0.0299 C.ar      1 <0>        -0.0939
     25 F1          2.3172    3.8566   -0.0012 F         1 <0>        -0.1054
     26 H1         -5.5081   -7.0163    6.3480 H         1 <0>         0.0902
     27 H2         -4.3084   -5.8418    6.9392 H         1 <0>         0.0900
     28 H3         -6.0254   -5.6530    7.3688 H         1 <0>         0.0907
     29 H4         -6.5761   -5.2401    4.9866 H         1 <0>         0.0795
     30 H5         -4.8591   -5.4289    4.5570 H         1 <0>         0.0782
     31 H6         -4.9832   -1.1506    5.8648 H         1 <0>         0.1513
     32 H7         -5.2634    0.4730    4.0361 H         1 <0>         0.1502
     33 H8         -6.2896   -2.6948    1.3708 H         1 <0>         0.1581
     34 H9         -6.0021   -4.3258    3.1918 H         1 <0>         0.1436
     35 H10        -3.6032    1.9180    1.6675 H         1 <0>         0.1922
     36 H11        -1.1745   -0.1963   -2.0444 H         1 <0>         0.2362
     37 H12        -2.3858   -1.2927   -2.4363 H         1 <0>         0.2339
     38 H13         0.0021   -0.0041    0.0020 H         1 <0>         0.1407
     39 H14         2.1149    1.2558   -0.0110 H         1 <0>         0.1459
     40 H15        -0.0605    4.9294    0.0273 H         1 <0>         0.1476
     41 H16        -2.1809    3.6821    0.0413 H         1 <0>         0.1431
@<TRIPOS>BOND
     1    1    2 1
     2    1   26 1
     3    1   27 1
     4    1   28 1
     5    2    3 1
     6    2   29 1
     7    2   30 1
     8    3    4 1
     9    4    9 ar
    10    4    5 ar
    11    5    6 ar
    12    5   31 1
    13    6    7 ar
    14    6   32 1
    15    7    8 ar
    16    7   10 1
    17    8    9 ar
    18    8   33 1
    19    9   34 1
    20   10   11 2
    21   10   12 2
    22   10   13 1
    23   13   17 1
    24   13   14 1
    25   14   15 2
    26   14   35 1
    27   15   16 1
    28   15   19 1
    29   16   17 2
    30   16   18 1
    31   18   36 1
    32   18   37 1
    33   19   24 ar
    34   19   20 ar
    35   20   21 ar
    36   20   38 1
    37   21   22 ar
    38   21   39 1
    39   22   23 ar
    40   22   25 1
    41   23   24 ar
    42   23   40 1
    43   24   41 1
@<TRIPOS>MOLECULE
ZINC01125011
   43    46     0     0     0
SMALL
USER_CHARGES

@<TRIPOS>ATOM
      1 C1         -7.1016   13.5397   -0.5928 C.3       1 <0>        -0.1756
      2 C2         -5.6939   13.0093   -0.5041 C.ar      1 <0>        -0.0363
      3 C3         -4.6233   13.8845   -0.5243 C.ar      1 <0>        -0.1621
      4 C4         -3.3307   13.4011   -0.4427 C.ar      1 <0>        -0.0849
      5 C5         -3.1056   12.0421   -0.3359 C.ar      1 <0>        -0.2310
      6 C6         -4.1775   11.1618   -0.3208 C.ar      1 <0>         0.0944
      7 C7         -5.4739   11.6495   -0.4024 C.ar      1 <0>        -0.1491
      8 O1         -3.9585    9.8243   -0.2206 O.3       1 <0>        -0.1797
      9 C8         -2.5982    9.3938   -0.1406 C.3       1 <0>        -0.0333
     10 C9         -2.5522    7.8912   -0.0355 C.2       1 <0>         0.2979
     11 O2         -3.5827    7.2519   -0.0297 O.2       1 <0>        -0.3040
     12 N1         -1.3658    7.2578    0.0520 N.am      1 <0>        -0.3197
     13 C10        -1.3165    5.8712    0.0332 C.ar      1 <0>         0.1159
     14 C11        -2.3325    5.1471   -0.5703 C.ar      1 <0>        -0.1719
     15 C12        -2.3086    3.7638   -0.6035 C.ar      1 <0>        -0.0001
     16 C13        -1.2535    3.0650   -0.0258 C.ar      1 <0>        -0.1759
     17 C14        -0.2059    3.7829    0.5965 C.ar      1 <0>         0.0342
     18 C15        -0.2300    5.1916    0.6299 C.ar      1 <0>        -0.0846
     19 C16         0.8235    5.8764    1.2540 C.ar      1 <0>        -0.0792
     20 C17         1.8605    5.1716    1.8222 C.ar      1 <0>        -0.1502
     21 C18         1.8928    3.7836    1.7936 C.ar      1 <0>        -0.0264
     22 C19         0.8670    3.0747    1.1845 C.ar      1 <0>        -0.1437
     23 C20         0.8574    1.6058    1.1298 C.2       1 <0>         0.3581
     24 O3          1.7700    0.9758    1.6294 O.2       1 <0>        -0.3372
     25 N2         -0.1567    0.9542    0.5299 N.am      1 <0>        -0.3375
     26 C21        -1.1898    1.5991   -0.0434 C.2       1 <0>         0.3596
     27 O4         -2.0785    0.9622   -0.5770 O.2       1 <0>        -0.3370
     28 H1         -7.4790   13.7381    0.4104 H         1 <0>         0.0904
     29 H2         -7.1062   14.4631   -1.1719 H         1 <0>         0.0843
     30 H3         -7.7380   12.8015   -1.0809 H         1 <0>         0.0864
     31 H4         -4.7974   14.9474   -0.6036 H         1 <0>         0.1332
     32 H5         -2.4963   14.0866   -0.4583 H         1 <0>         0.1306
     33 H6         -2.0958   11.6652   -0.2681 H         1 <0>         0.1252
     34 H7         -6.3103   10.9664   -0.3867 H         1 <0>         0.1499
     35 H8         -2.1289    9.8341    0.7391 H         1 <0>         0.0963
     36 H9         -2.0632    9.7120   -1.0354 H         1 <0>         0.0983
     37 H10        -0.5463    7.7713    0.1281 H         1 <0>         0.2358
     38 H11        -3.1594    5.6730   -1.0242 H         1 <0>         0.1824
     39 H12        -3.1131    3.2240   -1.0806 H         1 <0>         0.1646
     40 H13         0.8206    6.9558    1.2890 H         1 <0>         0.1255
     41 H14         2.6660    5.7095    2.2999 H         1 <0>         0.1399
     42 H15         2.7185    3.2546    2.2462 H         1 <0>         0.1603
     43 H16        -0.1402   -0.0154    0.5064 H         1 <0>         0.2560
@<TRIPOS>BOND
     1    1    2 1
     2    1   28 1
     3    1   29 1
     4    1   30 1
     5    2    7 ar
     6    2    3 ar
     7    3    4 ar
     8    3   31 1
     9    4    5 ar
    10    4   32 1
    11    5    6 ar
    12    5   33 1
    13    6    7 ar
    14    6    8 1
    15    7   34 1
    16    8    9 1
    17    9   10 1
    18    9   35 1
    19    9   36 1
    20   10   11 2
    21   10   12 am
    22   12   13 1
    23   12   37 1
    24   13   18 ar
    25   13   14 ar
    26   14   15 ar
    27   14   38 1
    28   15   16 ar
    29   15   39 1
    30   16   26 1
    31   16   17 ar
    32   17   22 ar
    33   17   18 ar
    34   18   19 ar
    35   19   20 ar
    36   19   40 1
    37   20   21 ar
    38   20   41 1
    39   21   22 ar
    40   21   42 1
    41   22   23 1
    42   23   24 2
    43   23   25 am
    44   25   26 am
    45   25   43 1
    46   26   27 2
@<TRIPOS>MOLECULE
ZINC01125293
   41    44     0     0     0
SMALL
USER_CHARGES

@<TRIPOS>ATOM
      1 C1         -1.1980    1.7565    0.0232 C.ar      1 <0>        -0.1145
      2 C2         -1.2559    3.1514    0.0291 C.ar      1 <0>        -0.1118
      3 C3         -0.1107    3.8882    0.0122 C.ar      1 <0>        -0.0678
      4 C4          1.1030    3.2080   -0.0036 C.ar      1 <0>        -0.0741
      5 C5          2.2277    4.0275   -0.0202 C.ar      1 <0>        -0.0247
      6 C6          3.4614    3.4476   -0.0369 C.ar      1 <0>        -0.1412
      7 C7          3.6104    2.0645   -0.0383 C.ar      1 <0>        -0.0781
      8 C8          2.5142    1.2064   -0.0223 C.ar      1 <0>        -0.1329
      9 C9          1.1821    1.8051   -0.0038 C.ar      1 <0>         0.0195
     10 C10        -0.0123    1.0763    0.0131 C.ar      1 <0>        -0.1156
     11 C11         2.6919   -0.2571   -0.0235 C.2       1 <0>         0.3609
     12 O1          1.7199   -0.9877   -0.0089 O.2       1 <0>        -0.3546
     13 N1          3.9318   -0.7853   -0.0407 N.am      1 <0>        -0.3286
     14 C12         4.1033   -2.1697    0.0559 C.ar      1 <0>         0.1203
     15 C13         5.1985   -2.6897    0.7337 C.ar      1 <0>        -0.1885
     16 C14         5.3622   -4.0575    0.8318 C.ar      1 <0>        -0.0064
     17 C15         4.4431   -4.9091    0.2467 C.ar      1 <0>        -0.7825
     18 C16         3.3547   -4.3947   -0.4338 C.ar      1 <0>        -0.0142
     19 C17         3.1821   -3.0279   -0.5307 C.ar      1 <0>        -0.1536
     20 S1          4.6590   -6.6536    0.3689 S.o2      1 <0>         2.7629
     21 O2          5.4587   -6.8841    1.5207 O.2       1 <0>        -0.9210
     22 O3          3.3724   -7.2344    0.2061 O.2       1 <0>        -0.9136
     23 N2          5.5611   -7.1279   -0.9362 N.pl3     1 <0>        -0.9296
     24 C18         1.7407    5.4580   -0.0139 C.3       1 <0>        -0.1227
     25 C19         0.1998    5.3649    0.0072 C.3       1 <0>        -0.1162
     26 H1         -2.1211    1.1959    0.0319 H         1 <0>         0.1336
     27 H2         -2.2143    3.6490    0.0420 H         1 <0>         0.1306
     28 H3          4.3407    4.0746   -0.0496 H         1 <0>         0.1324
     29 H4          4.6052    1.6443   -0.0519 H         1 <0>         0.1201
     30 H5          0.0023   -0.0036    0.0138 H         1 <0>         0.1796
     31 H6          4.7051   -0.2051   -0.1202 H         1 <0>         0.2375
     32 H7          5.9189   -2.0251    1.1874 H         1 <0>         0.1367
     33 H8          6.2110   -4.4625    1.3628 H         1 <0>         0.1536
     34 H9          2.6387   -5.0624   -0.8896 H         1 <0>         0.1555
     35 H10         2.3314   -2.6267   -1.0616 H         1 <0>         0.1727
     36 H11         6.1478   -7.8972   -0.8665 H         1 <0>         0.2429
     37 H12         5.5029   -6.6365   -1.7705 H         1 <0>         0.2300
     38 H13         2.1000    5.9753    0.8757 H         1 <0>         0.1022
     39 H14         2.0756    5.9748   -0.9132 H         1 <0>         0.1016
     40 H15        -0.1947    5.8369    0.9071 H         1 <0>         0.1001
     41 H16        -0.2192    5.8360   -0.8819 H         1 <0>         0.0997
@<TRIPOS>BOND
     1    1   10 ar
     2    1    2 ar
     3    1   26 1
     4    2    3 ar
     5    2   27 1
     6    3   25 1
     7    3    4 ar
     8    4    9 ar
     9    4    5 ar
    10    5    6 ar
    11    5   24 1
    12    6    7 ar
    13    6   28 1
    14    7    8 ar
    15    7   29 1
    16    8    9 ar
    17    8   11 1
    18    9   10 ar
    19   10   30 1
    20   11   12 2
    21   11   13 am
    22   13   14 1
    23   13   31 1
    24   14   19 ar
    25   14   15 ar
    26   15   16 ar
    27   15   32 1
    28   16   17 ar
    29   16   33 1
    30   17   18 ar
    31   17   20 1
    32   18   19 ar
    33   18   34 1
    34   19   35 1
    35   20   21 2
    36   20   22 2
    37   20   23 1
    38   23   36 1
    39   23   37 1
    40   24   25 1
    41   24   38 1
    42   24   39 1
    43   25   40 1
    44   25   41 1
@<TRIPOS>MOLECULE
ZINC01127103
   45    46     0     0     0
SMALL
USER_CHARGES

@<TRIPOS>ATOM
      1 C1         -0.8154   -4.6226    6.9905 C.3       1 <0>        -0.1881
      2 C2         -2.0272   -3.7358    6.6971 C.3       1 <0>        -0.0911
      3 C3         -2.5151   -3.0927    7.9969 C.3       1 <0>        -0.2031
      4 C4         -3.1483   -4.5865    6.0968 C.3       1 <0>        -0.2029
      5 C5         -1.6359   -2.6579    5.7193 C.2       1 <0>         0.3126
      6 O1         -0.4997   -2.6043    5.2985 O.2       1 <0>        -0.3460
      7 N1         -2.5486   -1.7535    5.3125 N.am      1 <0>        -0.3278
      8 C6         -2.2165   -0.8202    4.3244 C.ar      1 <0>         0.0736
      9 C7         -2.7673    0.4550    4.3589 C.ar      1 <0>        -0.1561
     10 C8         -2.4393    1.3774    3.3843 C.ar      1 <0>        -0.1068
     11 C9         -1.5595    1.0370    2.3747 C.ar      1 <0>        -0.1499
     12 C10        -1.0094   -0.2381    2.3314 C.ar      1 <0>         0.0424
     13 C11        -1.3367   -1.1670    3.3095 C.ar      1 <0>        -0.1145
     14 N2         -0.1235   -0.5830    1.3081 N.pl3     1 <0>        -0.8186
     15 S1         -0.6200   -1.5834    0.0853 S.o2      1 <0>         2.7563
     16 O2         -1.1936   -2.7269    0.7038 O.2       1 <0>        -0.8976
     17 O3          0.4634   -1.6750   -0.8296 O.2       1 <0>        -0.9037
     18 C12        -1.9271   -0.7606   -0.7627 C.ar      1 <0>        -0.7224
     19 C13        -3.2424   -1.0337   -0.4365 C.ar      1 <0>        -0.0300
     20 C14        -4.2678   -0.3849   -1.0987 C.ar      1 <0>        -0.0954
     21 C15        -3.9781    0.5299   -2.0938 C.ar      1 <0>        -0.0602
     22 C16        -2.6629    0.7994   -2.4233 C.ar      1 <0>        -0.0958
     23 C17        -1.6374    0.1539   -1.7580 C.ar      1 <0>        -0.0338
     24 N3         -5.0761    1.2211   -2.8061 N.pl3     1 <0>         0.5412
     25 O4         -4.8209    2.0274   -3.6826 O.2       1 <0>        -0.3459
     26 O5         -6.2349    0.9836   -2.5158 O.3       1 <0>        -0.3466
     27 H1         -0.0167   -4.0166    7.4181 H         1 <0>         0.0910
     28 H2         -1.0983   -5.4023    7.6977 H         1 <0>         0.0753
     29 H3         -0.4678   -5.0808    6.0645 H         1 <0>         0.0930
     30 H4         -3.3784   -2.4610    7.7879 H         1 <0>         0.0670
     31 H5         -2.7981   -3.8724    8.7041 H         1 <0>         0.0871
     32 H6         -1.7164   -2.4867    8.4245 H         1 <0>         0.0879
     33 H7         -2.8007   -5.0446    5.1709 H         1 <0>         0.0912
     34 H8         -3.4313   -5.3661    6.8040 H         1 <0>         0.0863
     35 H9         -4.0116   -3.9547    5.8879 H         1 <0>         0.0691
     36 H10        -3.4358   -1.7496    5.7048 H         1 <0>         0.2359
     37 H11        -3.4523    0.7254    5.1488 H         1 <0>         0.1343
     38 H12        -2.8685    2.3680    3.4137 H         1 <0>         0.1380
     39 H13        -1.3022    1.7616    1.6163 H         1 <0>         0.1350
     40 H14        -0.9070   -2.1574    3.2807 H         1 <0>         0.1842
     41 H15         0.7825   -0.2366    1.3136 H         1 <0>         0.2592
     42 H16        -3.4687   -1.7514    0.3381 H         1 <0>         0.1701
     43 H17        -5.2953   -0.5952   -0.8410 H         1 <0>         0.1707
     44 H18        -2.4366    1.5142   -3.2007 H         1 <0>         0.1710
     45 H19        -0.6099    0.3642   -2.0157 H         1 <0>         0.1637
@<TRIPOS>BOND
     1    1    2 1
     2    1   27 1
     3    1   28 1
     4    1   29 1
     5    2    3 1
     6    2    4 1
     7    2    5 1
     8    3   30 1
     9    3   31 1
    10    3   32 1
    11    4   33 1
    12    4   34 1
    13    4   35 1
    14    5    6 2
    15    5    7 am
    16    7    8 1
    17    7   36 1
    18    8   13 ar
    19    8    9 ar
    20    9   10 ar
    21    9   37 1
    22   10   11 ar
    23   10   38 1
    24   11   12 ar
    25   11   39 1
    26   12   13 ar
    27   12   14 1
    28   13   40 1
    29   14   15 1
    30   14   41 1
    31   15   16 2
    32   15   17 2
    33   15   18 1
    34   18   23 ar
    35   18   19 ar
    36   19   20 ar
    37   19   42 1
    38   20   21 ar
    39   20   43 1
    40   21   22 ar
    41   21   24 1
    42   22   23 ar
    43   22   44 1
    44   23   45 1
    45   24   25 2
    46   24   26 1
@<TRIPOS>MOLECULE
ZINC01128417
   43    44     0     0     0
SMALL
USER_CHARGES

@<TRIPOS>ATOM
      1 C1          2.5951   -0.1043    0.4717 C.3       1 <0>        -0.1748
      2 C2          2.4633    1.3956    0.4086 C.2       1 <0>        -0.2004
      3 C3          3.5110    2.1485    0.0167 C.2       1 <0>        -0.0192
      4 C4          3.3202    3.5776   -0.2798 C.ar      1 <0>        -0.0724
      5 C5          2.2343    3.9956   -1.0555 C.ar      1 <0>        -0.0545
      6 C6          2.0589    5.3368   -1.3236 C.ar      1 <0>        -0.1325
      7 C7          2.9609    6.2671   -0.8373 C.ar      1 <0>        -0.1100
      8 C8          4.0415    5.8606   -0.0741 C.ar      1 <0>        -0.1389
      9 C9          4.2271    4.5237    0.2079 C.ar      1 <0>        -0.1029
     10 C10         1.1980    2.0351    0.7729 C.2       1 <0>         0.3429
     11 O1          1.1270    3.2482    0.8422 O.2       1 <0>        -0.3365
     12 N1          0.1116    1.2807    1.0317 N.am      1 <0>        -0.3292
     13 C11        -1.0626    1.8817    1.4954 C.ar      1 <0>         0.1237
     14 C12        -0.9946    2.9897    2.3303 C.ar      1 <0>        -0.1564
     15 C13        -2.1563    3.5847    2.7815 C.ar      1 <0>         0.0126
     16 C14        -3.3863    3.0714    2.4126 C.ar      1 <0>        -0.7826
     17 C15        -3.4575    1.9647    1.5865 C.ar      1 <0>        -0.0131
     18 C16        -2.2996    1.3686    1.1267 C.ar      1 <0>        -0.1954
     19 S1         -4.8660    3.8295    2.9959 S.o2      1 <0>         2.7487
     20 O2         -4.5361    5.1755    3.3102 O.2       1 <0>        -0.8812
     21 O3         -5.8881    3.4924    2.0681 O.2       1 <0>        -0.9149
     22 N2         -5.2627    3.0933    4.4253 N.am      1 <0>        -0.8303
     23 C17        -4.4528    3.2185    5.4953 C.2       1 <0>         0.3239
     24 O4         -3.4335    3.8703    5.4114 O.2       1 <0>        -0.3284
     25 C18        -4.8139    2.5486    6.7960 C.3       1 <0>        -0.2383
     26 H1          2.3112   -0.5347   -0.4887 H         1 <0>         0.0866
     27 H2          3.6281   -0.3692    0.6974 H         1 <0>         0.0894
     28 H3          1.9413   -0.4940    1.2519 H         1 <0>         0.0754
     29 H4          4.4901    1.7030   -0.0797 H         1 <0>         0.1387
     30 H5          1.5321    3.2703   -1.4394 H         1 <0>         0.1279
     31 H6          1.2183    5.6616   -1.9188 H         1 <0>         0.1310
     32 H7          2.8205    7.3157   -1.0543 H         1 <0>         0.1273
     33 H8          4.7411    6.5926    0.3018 H         1 <0>         0.1279
     34 H9          5.0705    4.2082    0.8042 H         1 <0>         0.1259
     35 H10         0.1430    0.3212    0.8925 H         1 <0>         0.2364
     36 H11        -0.0343    3.3881    2.6227 H         1 <0>         0.1692
     37 H12        -2.1042    4.4493    3.4265 H         1 <0>         0.1736
     38 H13        -4.4196    1.5663    1.3002 H         1 <0>         0.1461
     39 H14        -2.3559    0.5047    0.4810 H         1 <0>         0.1340
     40 H15        -6.0779    2.5720    4.4924 H         1 <0>         0.2520
     41 H16        -5.7561    2.0130    6.6796 H         1 <0>         0.0829
     42 H17        -4.0282    1.8456    7.0730 H         1 <0>         0.1155
     43 H18        -4.9184    3.3025    7.5762 H         1 <0>         0.1202
@<TRIPOS>BOND
     1    1    2 1
     2    1   26 1
     3    1   27 1
     4    1   28 1
     5    2    3 2
     6    2   10 1
     7    3    4 1
     8    3   29 1
     9    4    9 ar
    10    4    5 ar
    11    5    6 ar
    12    5   30 1
    13    6    7 ar
    14    6   31 1
    15    7    8 ar
    16    7   32 1
    17    8    9 ar
    18    8   33 1
    19    9   34 1
    20   10   11 2
    21   10   12 am
    22   12   13 1
    23   12   35 1
    24   13   18 ar
    25   13   14 ar
    26   14   15 ar
    27   14   36 1
    28   15   16 ar
    29   15   37 1
    30   16   17 ar
    31   16   19 1
    32   17   18 ar
    33   17   38 1
    34   18   39 1
    35   19   20 2
    36   19   21 2
    37   19   22 1
    38   22   23 am
    39   22   40 1
    40   23   24 2
    41   23   25 1
    42   25   41 1
    43   25   42 1
    44   25   43 1
@<TRIPOS>MOLECULE
ZINC01130655
   41    44     0     0     0
SMALL
USER_CHARGES

@<TRIPOS>ATOM
      1 C1          1.3460   -0.4600    0.7400 C.ar      1 <0>        -0.1251
      2 C2          0.1421    0.2175    0.7638 C.ar      1 <0>        -0.1043
      3 C3         -0.0159    1.3832    0.0296 C.ar      1 <0>         0.0103
      4 C4          1.0402    1.8729   -0.7306 C.ar      1 <0>         0.0370
      5 C5          2.2471    1.1918   -0.7558 C.ar      1 <0>        -0.1538
      6 C6          2.4012    0.0247   -0.0205 C.ar      1 <0>         0.0522
      7 N1          3.6213   -0.6634   -0.0454 N.am      1 <0>        -0.3153
      8 C7          3.6388   -2.0078    0.0483 C.2       1 <0>         0.3225
      9 O1          2.5969   -2.6287    0.0578 O.2       1 <0>        -0.3250
     10 C8          4.9529   -2.7396    0.1412 C.3       1 <0>        -0.3609
     11 S1          4.6455   -4.5197    0.2546 S.3       1 <0>         0.4016
     12 C9          6.3026   -5.1110    0.3489 C.2       1 <0>        -0.1405
     13 N2          6.6628   -6.4250    0.4515 N.2       1 <0>        -0.1466
     14 H1          7.3749   -3.3590    0.2564 H         1 <0>         0.2520
     15 C10         8.0467   -6.4688    0.4985 C.ar      1 <0>        -0.0062
     16 C11         8.9727   -7.4950    0.6078 C.ar      1 <0>        -0.0788
     17 C12        10.3211   -7.2034    0.6354 C.ar      1 <0>        -0.0915
     18 C13        10.7572   -5.8888    0.5622 C.ar      1 <0>        -0.1059
     19 C14         9.8515   -4.8568    0.4596 C.ar      1 <0>        -0.0563
     20 C15         8.4827   -5.1352    0.4296 C.ar      1 <0>        -0.0823
     21 N3          7.3738   -4.3562    0.3311 N.pl3     1 <0>        -0.1753
     22 N4         12.2072   -5.5931    0.5938 N.pl3     1 <0>         0.5526
     23 O2         12.5952   -4.4404    0.5293 O.2       1 <0>        -0.3640
     24 O3         13.0123   -6.5026    0.6844 O.3       1 <0>        -0.3507
     25 O4          0.9066    3.0201   -1.4509 O.3       1 <0>        -0.2052
     26 C16        -0.4288    3.4725   -1.6995 C.3       1 <0>        -0.0515
     27 C17        -1.2154    3.3951   -0.3841 C.3       1 <0>        -0.0525
     28 O5         -1.2126    2.0331    0.0591 O.3       1 <0>        -0.2019
     29 H2          1.4660   -1.3675    1.3130 H         1 <0>         0.1640
     30 H3         -0.6779   -0.1618    1.3554 H         1 <0>         0.1532
     31 H4          3.0677    1.5693   -1.3478 H         1 <0>         0.1448
     32 H5          4.4535   -0.1723   -0.1301 H         1 <0>         0.2327
     33 H6          5.5493   -2.5297   -0.7467 H         1 <0>         0.1205
     34 H7          5.4922   -2.4068    1.0281 H         1 <0>         0.1213
     35 H8          8.6396   -8.5207    0.6657 H         1 <0>         0.1618
     36 H9         11.0415   -8.0040    0.7148 H         1 <0>         0.1693
     37 H10        10.1980   -3.8355    0.4030 H         1 <0>         0.1590
     38 H11        -0.4076    4.5027   -2.0551 H         1 <0>         0.1231
     39 H12        -0.8994    2.8351   -2.4480 H         1 <0>         0.0973
     40 H13        -0.7409    4.0281    0.3658 H         1 <0>         0.0945
     41 H14        -2.2410    3.7253   -0.5491 H         1 <0>         0.1240
@<TRIPOS>BOND
     1    1    6 ar
     2    1    2 ar
     3    1   29 1
     4    2    3 ar
     5    2   30 1
     6    3   28 1
     7    3    4 ar
     8    4    5 ar
     9    4   25 1
    10    5    6 ar
    11    5   31 1
    12    6    7 1
    13    7    8 am
    14    7   32 1
    15    8    9 2
    16    8   10 1
    17   10   11 1
    18   10   33 1
    19   10   34 1
    20   11   12 1
    21   12   13 2
    22   12   21 1
    23   13   15 1
    24   14   21 1
    25   15   20 ar
    26   15   16 ar
    27   16   17 ar
    28   16   35 1
    29   17   18 ar
    30   17   36 1
    31   18   19 ar
    32   18   22 1
    33   19   20 ar
    34   19   37 1
    35   20   21 1
    36   22   23 2
    37   22   24 1
    38   25   26 1
    39   26   27 1
    40   26   38 1
    41   26   39 1
    42   27   28 1
    43   27   40 1
    44   27   41 1
@<TRIPOS>MOLECULE
ZINC01130655
   42    45     0     0     0
SMALL
USER_CHARGES

@<TRIPOS>ATOM
      1 C1          1.3460   -0.4600    0.7400 C.ar      1 <0>        -0.1231
      2 C2          0.1421    0.2175    0.7638 C.ar      1 <0>        -0.1038
      3 C3         -0.0159    1.3832    0.0296 C.ar      1 <0>         0.0287
      4 C4          1.0402    1.8729   -0.7306 C.ar      1 <0>         0.0428
      5 C5          2.2471    1.1918   -0.7558 C.ar      1 <0>        -0.1441
      6 C6          2.4012    0.0247   -0.0205 C.ar      1 <0>         0.0264
      7 N1          3.6213   -0.6634   -0.0454 N.am      1 <0>        -0.2918
      8 C7          3.6388   -2.0078    0.0483 C.2       1 <0>         0.3197
      9 O1          2.5969   -2.6287    0.0578 O.2       1 <0>        -0.3217
     10 C8          4.9529   -2.7396    0.1412 C.3       1 <0>        -0.3698
     11 S1          4.6455   -4.5197    0.2546 S.3       1 <0>         0.4904
     12 C9          6.3026   -5.1110    0.3489 C.cat     1 <0>        -0.0368
     13 N2          6.6628   -6.4250    0.4515 N.pl3     1 <0>        -0.1476
     14 H1          6.0430   -7.2090    0.4862 H         1 <0>         0.3190
     15 C10         8.0467   -6.4688    0.4985 C.ar      1 <0>         0.0203
     16 C11         8.9730   -7.4956    0.5988 C.ar      1 <0>        -0.1003
     17 C12        10.3216   -7.2045    0.6200 C.ar      1 <0>        -0.0313
     18 C13        10.7578   -5.8901    0.5432 C.ar      1 <0>        -0.0755
     19 C14         9.8520   -4.8579    0.4434 C.ar      1 <0>        -0.0371
     20 C15         8.4830   -5.1359    0.4199 C.ar      1 <0>        -0.0517
     21 N3         12.2081   -5.5949    0.5680 N.pl3     1 <0>         0.5438
     22 O2         12.5962   -4.4424    0.5004 O.2       1 <0>        -0.3208
     23 O3         13.0133   -6.5045    0.6561 O.3       1 <0>        -0.3045
     24 O4          0.9066    3.0201   -1.4509 O.3       1 <0>        -0.2014
     25 C16        -0.4288    3.4725   -1.6995 C.3       1 <0>        -0.0530
     26 C17        -1.2154    3.3951   -0.3841 C.3       1 <0>        -0.0540
     27 O5         -1.2126    2.0331    0.0591 O.3       1 <0>        -0.1961
     28 H2          1.4660   -1.3675    1.3130 H         1 <0>         0.1552
     29 H3         -0.6779   -0.1618    1.3554 H         1 <0>         0.1597
     30 H4          3.0677    1.5693   -1.3478 H         1 <0>         0.1467
     31 H5          4.4535   -0.1723   -0.1301 H         1 <0>         0.2348
     32 H6          5.5493   -2.5297   -0.7467 H         1 <0>         0.1326
     33 H7          5.4922   -2.4068    1.0281 H         1 <0>         0.1337
     34 H8          8.6398   -8.5211    0.6594 H         1 <0>         0.1785
     35 H9         11.0421   -8.0052    0.6972 H         1 <0>         0.2017
     36 H10        10.1986   -3.8368    0.3840 H         1 <0>         0.1899
     37 H11        -0.4076    4.5027   -2.0551 H         1 <0>         0.1324
     38 H12        -0.8994    2.8351   -2.4480 H         1 <0>         0.1008
     39 H13        -0.7409    4.0281    0.3658 H         1 <0>         0.0996
     40 H14        -2.2410    3.7253   -0.5491 H         1 <0>         0.1336
     41 N4          7.3740   -4.3556    0.3253 N.pl3     1 <0>        -0.1374
     42 H15         7.3751   -3.3318    0.2474 H         1 <0>         0.3115
@<TRIPOS>BOND
     1    1    6 ar
     2    1    2 ar
     3    1   28 1
     4    2    3 ar
     5    2   29 1
     6    3   27 1
     7    3    4 ar
     8    4    5 ar
     9    4   24 1
    10    5    6 ar
    11    5   30 1
    12    6    7 1
    13    7    8 am
    14    7   31 1
    15    8    9 2
    16    8   10 1
    17   10   11 1
    18   10   32 1
    19   10   33 1
    20   11   12 1
    21   12   13 1
    22   12   41 2
    23   13   14 1
    24   13   15 1
    25   15   20 ar
    26   15   16 ar
    27   16   17 ar
    28   16   34 1
    29   17   18 ar
    30   17   35 1
    31   18   19 ar
    32   18   21 1
    33   19   20 ar
    34   19   36 1
    35   20   41 1
    36   21   22 2
    37   21   23 1
    38   24   25 1
    39   25   26 1
    40   25   37 1
    41   25   38 1
    42   26   27 1
    43   26   39 1
    44   26   40 1
    45   41   42 1
@<TRIPOS>MOLECULE
ZINC01131178
   43    45     0     0     0
SMALL
USER_CHARGES

@<TRIPOS>ATOM
      1 C1         -4.8674   -5.4836    0.1705 C.3       1 <0>        -0.1741
      2 C2         -4.2245   -4.1210    0.2011 C.ar      1 <0>        -0.0967
      3 C3         -2.8856   -3.9966   -0.0429 C.ar      1 <0>        -0.0621
      4 C4         -2.2913   -2.7330   -0.0146 C.ar      1 <0>        -0.1349
      5 C5         -0.9302   -2.2416   -0.2261 C.2       1 <0>        -0.0491
      6 C6         -0.9859   -0.8950   -0.0571 C.2       1 <0>        -0.0987
      7 O1         -2.2513   -0.5234    0.2287 O.3       1 <0>        -0.0877
      8 C7         -3.0691   -1.5934    0.2646 C.ar      1 <0>         0.0479
      9 C8         -4.4287   -1.7449    0.5096 C.ar      1 <0>        -0.1258
     10 C9         -4.9962   -3.0007    0.4766 C.ar      1 <0>        -0.0354
     11 C10        -6.4709   -3.1591    0.7430 C.3       1 <0>        -0.1783
     12 C11         0.1580    0.0198   -0.1742 C.2       1 <0>         0.3942
     13 O2          1.2625   -0.4178   -0.4370 O.2       1 <0>        -0.3368
     14 N1         -0.0162    1.3436    0.0094 N.am      1 <0>        -0.3206
     15 C12         1.0883    2.2010    0.0075 C.ar      1 <0>         0.1225
     16 C13         2.3099    1.7634    0.5029 C.ar      1 <0>        -0.1562
     17 C14         3.4004    2.6108    0.4938 C.ar      1 <0>        -0.0081
     18 C15         3.2739    3.8977    0.0036 C.ar      1 <0>        -0.7821
     19 C16         2.0576    4.3383   -0.4851 C.ar      1 <0>        -0.0075
     20 C17         0.9648    3.4940   -0.4846 C.ar      1 <0>        -0.1867
     21 S1          4.6658    4.9782    0.0011 S.o2      1 <0>         2.7635
     22 O3          5.8216    4.1516    0.0065 O.2       1 <0>        -0.9165
     23 O4          4.4264    5.9465   -1.0110 O.2       1 <0>        -0.9189
     24 N2          4.6578    5.7902    1.4443 N.pl3     1 <0>        -0.9319
     25 C18         0.2878   -3.0632   -0.5613 C.3       1 <0>        -0.1595
     26 H1         -5.2154   -5.6985   -0.8398 H         1 <0>         0.0880
     27 H2         -4.1385   -6.2361    0.4715 H         1 <0>         0.0829
     28 H3         -5.7133   -5.5018    0.8578 H         1 <0>         0.0859
     29 H4         -2.2898   -4.8715   -0.2570 H         1 <0>         0.1384
     30 H5         -5.0393   -0.8807    0.7257 H         1 <0>         0.1418
     31 H6         -7.0199   -3.0835   -0.1957 H         1 <0>         0.0919
     32 H7         -6.6560   -4.1337    1.1946 H         1 <0>         0.0905
     33 H8         -6.8037   -2.3746    1.4226 H         1 <0>         0.0845
     34 H9         -0.9082    1.7020    0.1390 H         1 <0>         0.2477
     35 H10         2.4081    0.7602    0.8906 H         1 <0>         0.1664
     36 H11         4.3518    2.2697    0.8744 H         1 <0>         0.1574
     37 H12         1.9624    5.3437   -0.8679 H         1 <0>         0.1549
     38 H13         0.0152    3.8386   -0.8667 H         1 <0>         0.1395
     39 H14         3.9596    5.6163    2.0948 H         1 <0>         0.2290
     40 H15         5.3514    6.4398    1.6391 H         1 <0>         0.2431
     41 H16         0.7777   -3.3792    0.3597 H         1 <0>         0.0962
     42 H17        -0.0123   -3.9414   -1.1330 H         1 <0>         0.0830
     43 H18         0.9791   -2.4633   -1.1532 H         1 <0>         0.1186
@<TRIPOS>BOND
     1    1    2 1
     2    1   26 1
     3    1   27 1
     4    1   28 1
     5    2   10 ar
     6    2    3 ar
     7    3    4 ar
     8    3   29 1
     9    4    8 ar
    10    4    5 1
    11    5    6 2
    12    5   25 1
    13    6    7 1
    14    6   12 1
    15    7    8 1
    16    8    9 ar
    17    9   10 ar
    18    9   30 1
    19   10   11 1
    20   11   31 1
    21   11   32 1
    22   11   33 1
    23   12   13 2
    24   12   14 am
    25   14   15 1
    26   14   34 1
    27   15   20 ar
    28   15   16 ar
    29   16   17 ar
    30   16   35 1
    31   17   18 ar
    32   17   36 1
    33   18   19 ar
    34   18   21 1
    35   19   20 ar
    36   19   37 1
    37   20   38 1
    38   21   22 2
    39   21   23 2
    40   21   24 1
    41   24   39 1
    42   24   40 1
    43   25   41 1
    44   25   42 1
    45   25   43 1
@<TRIPOS>MOLECULE
ZINC01132406
   40    42     0     0     0
SMALL
USER_CHARGES

@<TRIPOS>ATOM
      1 C1         -1.0900    2.2496    1.6568 C.3       1 <0>        -0.2177
      2 C2         -1.3031    3.7506    1.4511 C.3       1 <0>        -0.1509
      3 C3         -0.7553    4.1607    0.0826 C.3       1 <0>        -0.2348
      4 H1         -1.2046    3.5371   -0.6903 H         1 <0>         0.1486
      5 C4         -1.0907    5.6062   -0.1801 C.2       1 <0>         0.3131
      6 O1         -0.2522    6.4647   -0.0054 O.2       1 <0>        -0.3149
      7 N1         -2.3226    5.9449   -0.6093 N.am      1 <0>        -0.2600
      8 C5         -2.6310    7.2737   -0.8509 C.2       1 <0>        -0.0156
      9 N2         -3.7618    7.7939   -1.2674 N.2       1 <0>        -0.2504
     10 C6         -3.9228    9.1208   -1.4613 C.ar      1 <0>         0.0022
     11 C7         -5.0790    9.8049   -1.9030 C.ar      1 <0>        -0.0805
     12 C8         -5.0740   11.1675   -2.0470 C.ar      1 <0>        -0.1270
     13 C9         -3.9437   11.9222   -1.7676 C.ar      1 <0>        -0.1237
     14 C10        -2.7951   11.2861   -1.3339 C.ar      1 <0>        -0.0747
     15 C11        -2.7908    9.9215   -1.1863 C.ar      1 <0>        -0.2884
     16 S1         -1.5926    8.7168   -0.6671 S.3       1 <0>         0.3705
     17 S2          1.0417    3.9451    0.0628 S.3       1 <0>         0.2930
     18 C12         1.3665    4.2404   -1.6436 C.2       1 <0>         0.0003
     19 N3          2.6551    4.2801   -2.0827 N.am      1 <0>        -0.2680
     20 H2          3.4088    4.1422   -1.4401 H         1 <0>         0.2576
     21 C13         2.9112    4.5064   -3.3889 C.2       1 <0>         0.3309
     22 O2          4.0595    4.5448   -3.7997 O.2       1 <0>        -0.3634
     23 C14         1.8297    4.6964   -4.2667 C.2       1 <0>        -0.3031
     24 C15         0.5592    4.6458   -3.7698 C.2       1 <0>         0.0690
     25 N4          0.3575    4.4198   -2.4742 N.2       1 <0>        -0.2732
     26 C16        -0.6170    4.8459   -4.6904 C.3       1 <0>        -0.1695
     27 H3         -1.6816    1.6954    0.9280 H         1 <0>         0.0802
     28 H4         -0.0347    2.0110    1.5250 H         1 <0>         0.0894
     29 H5         -1.4021    1.9730    2.6639 H         1 <0>         0.0883
     30 H6         -0.7798    4.3023    2.2321 H         1 <0>         0.1080
     31 H7         -2.3684    3.9763    1.4984 H         1 <0>         0.1002
     32 H8         -2.9933    5.2582   -0.7490 H         1 <0>         0.2539
     33 H9         -5.9758    9.2472   -2.1291 H         1 <0>         0.1413
     34 H10        -5.9704   11.6656   -2.3860 H         1 <0>         0.1333
     35 H11        -3.9609   12.9954   -1.8873 H         1 <0>         0.1367
     36 H12        -1.9069   11.8594   -1.1127 H         1 <0>         0.1379
     37 H13         2.0011    4.8798   -5.3172 H         1 <0>         0.1695
     38 H14        -1.5423    4.7712   -4.1191 H         1 <0>         0.0954
     39 H15        -0.5536    5.8312   -5.1521 H         1 <0>         0.1010
     40 H16        -0.6059    4.0799   -5.4658 H         1 <0>         0.0958
@<TRIPOS>BOND
     1    1    2 1
     2    1   27 1
     3    1   28 1
     4    1   29 1
     5    2    3 1
     6    2   30 1
     7    2   31 1
     8    3    4 1
     9    3    5 1
    10    3   17 1
    11    5    6 2
    12    5    7 am
    13    7    8 1
    14    7   32 1
    15    8   16 1
    16    8    9 2
    17    9   10 1
    18   10   15 ar
    19   10   11 ar
    20   11   12 ar
    21   11   33 1
    22   12   13 ar
    23   12   34 1
    24   13   14 ar
    25   13   35 1
    26   14   15 ar
    27   14   36 1
    28   15   16 1
    29   17   18 1
    30   18   25 2
    31   18   19 1
    32   19   20 1
    33   19   21 am
    34   21   22 2
    35   21   23 1
    36   23   24 2
    37   23   37 1
    38   24   25 1
    39   24   26 1
    40   26   38 1
    41   26   39 1
    42   26   40 1
@<TRIPOS>MOLECULE
ZINC01132406
   40    42     0     0     0
SMALL
USER_CHARGES

@<TRIPOS>ATOM
      1 C1         -1.0900    2.2496    1.6568 C.3       1 <0>        -0.2173
      2 C2         -1.3031    3.7506    1.4511 C.3       1 <0>        -0.1482
      3 C3         -0.7553    4.1607    0.0826 C.3       1 <0>        -0.2570
      4 H1         -1.2046    3.5371   -0.6903 H         1 <0>         0.1430
      5 C4         -1.0907    5.6062   -0.1801 C.2       1 <0>         0.3130
      6 O1         -0.2522    6.4647   -0.0054 O.2       1 <0>        -0.3123
      7 N1         -2.3226    5.9449   -0.6093 N.am      1 <0>        -0.2629
      8 C5         -2.6310    7.2737   -0.8509 C.2       1 <0>        -0.0102
      9 N2         -3.7618    7.7939   -1.2674 N.2       1 <0>        -0.2559
     10 C6         -3.9228    9.1208   -1.4613 C.ar      1 <0>         0.0045
     11 C7         -5.0790    9.8049   -1.9030 C.ar      1 <0>        -0.0827
     12 C8         -5.0740   11.1675   -2.0470 C.ar      1 <0>        -0.1273
     13 C9         -3.9437   11.9222   -1.7676 C.ar      1 <0>        -0.1269
     14 C10        -2.7951   11.2861   -1.3339 C.ar      1 <0>        -0.0742
     15 C11        -2.7908    9.9215   -1.1863 C.ar      1 <0>        -0.2920
     16 S1         -1.5926    8.7168   -0.6671 S.3       1 <0>         0.3703
     17 S2          1.0417    3.9451    0.0628 S.3       1 <0>         0.3533
     18 C12         1.3665    4.2404   -1.6436 C.ar      1 <0>        -0.0239
     19 N3          2.6551    4.2808   -2.0826 N.ar      1 <0>        -0.2496
     20 H2          4.0557    4.7227   -4.7837 H         1 <0>         0.2670
     21 C13         2.9112    4.5071   -3.3888 C.ar      1 <0>         0.2352
     22 O2          4.0595    4.5462   -3.7994 O.3       1 <0>        -0.1705
     23 C14         1.8296    4.6943   -4.2671 C.ar      1 <0>        -0.4037
     24 C15         0.5591    4.6435   -3.7702 C.ar      1 <0>         0.1086
     25 N4          0.3575    4.4187   -2.4744 N.ar      1 <0>        -0.2926
     26 C16        -0.6171    4.8423   -4.6910 C.3       1 <0>        -0.1739
     27 H3         -1.6816    1.6954    0.9280 H         1 <0>         0.0774
     28 H4         -0.0347    2.0110    1.5250 H         1 <0>         0.0927
     29 H5         -1.4021    1.9730    2.6639 H         1 <0>         0.0847
     30 H6         -0.7798    4.3023    2.2321 H         1 <0>         0.1070
     31 H7         -2.3684    3.9763    1.4984 H         1 <0>         0.0942
     32 H8         -2.9933    5.2582   -0.7490 H         1 <0>         0.2532
     33 H9         -5.9758    9.2472   -2.1291 H         1 <0>         0.1405
     34 H10        -5.9704   11.6656   -2.3860 H         1 <0>         0.1321
     35 H11        -3.9609   12.9954   -1.8873 H         1 <0>         0.1354
     36 H12        -1.9069   11.8594   -1.1127 H         1 <0>         0.1369
     37 H13         2.0010    4.8764   -5.3178 H         1 <0>         0.1403
     38 H14        -1.5424    4.7678   -4.1197 H         1 <0>         0.1010
     39 H15        -0.5540    5.8271   -5.1537 H         1 <0>         0.0981
     40 H16        -0.6057    4.0755   -5.4657 H         1 <0>         0.0928
@<TRIPOS>BOND
     1    1    2 1
     2    1   27 1
     3    1   28 1
     4    1   29 1
     5    2    3 1
     6    2   30 1
     7    2   31 1
     8    3    4 1
     9    3    5 1
    10    3   17 1
    11    5    6 2
    12    5    7 am
    13    7    8 1
    14    7   32 1
    15    8   16 1
    16    8    9 2
    17    9   10 1
    18   10   15 ar
    19   10   11 ar
    20   11   12 ar
    21   11   33 1
    22   12   13 ar
    23   12   34 1
    24   13   14 ar
    25   13   35 1
    26   14   15 ar
    27   14   36 1
    28   15   16 1
    29   17   18 1
    30   18   25 ar
    31   18   19 ar
    32   19   21 ar
    33   20   22 1
    34   21   22 1
    35   21   23 ar
    36   23   37 1
    37   23   24 ar
    38   24   26 1
    39   24   25 ar
    40   26   38 1
    41   26   39 1
    42   26   40 1
@<TRIPOS>MOLECULE
ZINC01132406
   40    42     0     0     0
SMALL
USER_CHARGES

@<TRIPOS>ATOM
      1 C1         -1.0898    2.2509    1.6574 C.3       1 <0>        -0.2194
      2 C2         -1.3031    3.7518    1.4513 C.3       1 <0>        -0.1400
      3 C3         -0.7553    4.1616    0.0827 C.3       1 <0>        -0.2954
      4 H1         -1.2045    3.5377   -0.6900 H         1 <0>         0.1142
      5 C4         -1.0908    5.6070   -0.1804 C.2       1 <0>         0.2730
      6 O1         -0.2524    6.4656   -0.0059 O.2       1 <0>        -0.2854
      7 N1         -2.3228    5.9454   -0.6097 N.am      1 <0>        -0.2712
      8 C5         -2.6313    7.2742   -0.8516 C.2       1 <0>        -0.0364
      9 N2         -3.7622    7.7941   -1.2683 N.2       1 <0>        -0.2416
     10 C6         -3.9233    9.1210   -1.4626 C.ar      1 <0>        -0.0042
     11 C7         -5.0796    9.8048   -1.9045 C.ar      1 <0>        -0.0767
     12 C8         -5.0747   11.1674   -2.0488 C.ar      1 <0>        -0.1265
     13 C9         -3.9445   11.9223   -1.7696 C.ar      1 <0>        -0.1174
     14 C10        -2.7958   11.2864   -1.3357 C.ar      1 <0>        -0.0754
     15 C11        -2.7914    9.9218   -1.1878 C.ar      1 <0>        -0.2836
     16 S1         -1.5931    8.7174   -0.6682 S.3       1 <0>         0.3838
     17 S2          1.0417    3.9462    0.0630 S.3       1 <0>         0.3688
     18 C12         1.3665    4.2411   -1.6435 C.2       1 <0>        -0.0299
     19 N3          2.6551    4.2808   -2.0826 N.2       1 <0>        -0.2454
     20 H2         -0.5781    4.3851   -2.1229 H         1 <0>         0.2335
     21 C13         2.9112    4.5064   -3.3889 C.2       1 <0>         0.2988
     22 O2          4.0595    4.5448   -3.7997 O.2       1 <0>        -0.3225
     23 C14         1.8297    4.6954   -4.2669 C.2       1 <0>        -0.2781
     24 C15         0.5592    4.6448   -3.7700 C.2       1 <0>         0.0215
     25 N4          0.3575    4.4196   -2.4742 N.pl3     1 <0>        -0.2143
     26 C16        -0.6170    4.8443   -4.6907 C.3       1 <0>        -0.1819
     27 H3         -1.6813    1.6964    0.9288 H         1 <0>         0.0767
     28 H4         -0.0345    2.0124    1.5257 H         1 <0>         0.0963
     29 H5         -1.4019    1.9745    2.6646 H         1 <0>         0.0930
     30 H6         -0.7798    4.3038    2.2322 H         1 <0>         0.1160
     31 H7         -2.3684    3.9774    1.4985 H         1 <0>         0.0978
     32 H8         -2.9934    5.2586   -0.7492 H         1 <0>         0.2513
     33 H9         -5.9763    9.2470   -2.1304 H         1 <0>         0.1425
     34 H10        -5.9712   11.6653   -2.3880 H         1 <0>         0.1358
     35 H11        -3.9618   12.9954   -1.8896 H         1 <0>         0.1395
     36 H12        -1.9077   11.8599   -1.1147 H         1 <0>         0.1411
     37 H13         2.0010    4.8780   -5.3175 H         1 <0>         0.1666
     38 H14        -1.5423    4.7697   -4.1194 H         1 <0>         0.0744
     39 H15        -0.5538    5.8294   -5.1528 H         1 <0>         0.1127
     40 H16        -0.6058    4.0780   -5.4658 H         1 <0>         0.1078
@<TRIPOS>BOND
     1    1    2 1
     2    1   27 1
     3    1   28 1
     4    1   29 1
     5    2    3 1
     6    2   30 1
     7    2   31 1
     8    3    4 1
     9    3    5 1
    10    3   17 1
    11    5    6 2
    12    5    7 am
    13    7    8 1
    14    7   32 1
    15    8   16 1
    16    8    9 2
    17    9   10 1
    18   10   15 ar
    19   10   11 ar
    20   11   12 ar
    21   11   33 1
    22   12   13 ar
    23   12   34 1
    24   13   14 ar
    25   13   35 1
    26   14   15 ar
    27   14   36 1
    28   15   16 1
    29   17   18 1
    30   18   25 1
    31   18   19 2
    32   19   21 1
    33   20   25 1
    34   21   22 2
    35   21   23 1
    36   23   37 1
    37   23   24 2
    38   24   26 1
    39   24   25 1
    40   26   38 1
    41   26   39 1
    42   26   40 1
@<TRIPOS>MOLECULE
ZINC01133011
   46    48     0     0     0
SMALL
USER_CHARGES

@<TRIPOS>ATOM
      1 C1          2.9166    0.1521   -7.8259 C.3       1 <0>        -0.2134
      2 C2          2.4291    0.4612   -6.4090 C.3       1 <0>        -0.1563
      3 C3          1.0898   -0.2379   -6.1667 C.3       1 <0>        -0.0714
      4 H1          0.3823    0.0534   -6.9430 H         1 <0>         0.0955
      5 C4          1.2919   -1.7540   -6.2036 C.3       1 <0>        -0.2054
      6 C5          0.5499    0.1643   -4.8184 C.ar      1 <0>        -0.1026
      7 C6         -0.6740    0.8011   -4.7270 C.ar      1 <0>        -0.0880
      8 C7         -1.1710    1.1707   -3.4923 C.ar      1 <0>        -0.1463
      9 C8         -0.4411    0.9026   -2.3434 C.ar      1 <0>         0.0866
     10 C9          0.7892    0.2687   -2.4383 C.ar      1 <0>        -0.2227
     11 C10         1.2795   -0.1037   -3.6749 C.ar      1 <0>        -0.0847
     12 O1         -0.9280    1.2652   -1.1275 O.3       1 <0>        -0.1803
     13 C11        -0.1225    0.9574    0.0120 C.3       1 <0>        -0.0332
     14 C12        -0.8187    1.4306    1.2619 C.2       1 <0>         0.2995
     15 O2         -1.8984    1.9776    1.1846 O.2       1 <0>        -0.3107
     16 N1         -0.2416    1.2460    2.4658 N.am      1 <0>        -0.3299
     17 C13        -0.8313    1.7801    3.6110 C.ar      1 <0>         0.0824
     18 C14        -1.5112    2.9899    3.5389 C.ar      1 <0>        -0.1181
     19 C15        -2.1051    3.5270    4.6663 C.ar      1 <0>        -0.0379
     20 C16        -2.0121    2.8599    5.8798 C.ar      1 <0>        -0.1544
     21 C17        -1.3176    1.6342    5.9579 C.ar      1 <0>        -0.1158
     22 C18        -0.7312    1.1006    4.8246 C.ar      1 <0>        -0.0959
     23 C19        -1.4125    1.2057    7.3699 C.2       1 <0>         0.3595
     24 O3         -0.9351    0.1913    7.8370 O.2       1 <0>        -0.3007
     25 N2         -2.1158    2.1288    8.0503 N.am      1 <0>        -0.3552
     26 C20        -2.5038    3.1331    7.2440 C.2       1 <0>         0.3593
     27 O4         -3.1510    4.1038    7.5827 O.2       1 <0>        -0.2983
     28 H2          2.1837    0.5106   -8.5487 H         1 <0>         0.0736
     29 H3          3.8707    0.6502   -7.9985 H         1 <0>         0.0736
     30 H4          3.0429   -0.9245   -7.9400 H         1 <0>         0.0750
     31 H5          2.3028    1.5378   -6.2949 H         1 <0>         0.0859
     32 H6          3.1620    0.1027   -5.6863 H         1 <0>         0.0802
     33 H7          0.3378   -2.2520   -6.0310 H         1 <0>         0.0782
     34 H8          1.6824   -2.0449   -7.1788 H         1 <0>         0.0774
     35 H9          1.9994   -2.0453   -5.4273 H         1 <0>         0.0734
     36 H10        -1.2420    1.0093   -5.6217 H         1 <0>         0.1375
     37 H11        -2.1269    1.6684   -3.4215 H         1 <0>         0.1489
     38 H12         1.3614    0.0628   -1.5457 H         1 <0>         0.1264
     39 H13         2.2356   -0.6006   -3.7490 H         1 <0>         0.1332
     40 H14         0.0314   -0.1203    0.0677 H         1 <0>         0.0969
     41 H15         0.8415    1.4579   -0.0786 H         1 <0>         0.0972
     42 H16         0.5840    0.7415    2.5356 H         1 <0>         0.2365
     43 H17        -1.5797    3.5117    2.5959 H         1 <0>         0.1726
     44 H18        -2.6360    4.4654    4.6036 H         1 <0>         0.1569
     45 H19        -0.1982    0.1629    4.8794 H         1 <0>         0.1502
     46 H20        -2.3166    2.0770    8.9979 H         1 <0>         0.2643
@<TRIPOS>BOND
     1    1    2 1
     2    1   28 1
     3    1   29 1
     4    1   30 1
     5    2    3 1
     6    2   31 1
     7    2   32 1
     8    3    4 1
     9    3    5 1
    10    3    6 1
    11    5   33 1
    12    5   34 1
    13    5   35 1
    14    6   11 ar
    15    6    7 ar
    16    7    8 ar
    17    7   36 1
    18    8    9 ar
    19    8   37 1
    20    9   10 ar
    21    9   12 1
    22   10   11 ar
    23   10   38 1
    24   11   39 1
    25   12   13 1
    26   13   14 1
    27   13   40 1
    28   13   41 1
    29   14   15 2
    30   14   16 am
    31   16   17 1
    32   16   42 1
    33   17   22 ar
    34   17   18 ar
    35   18   19 ar
    36   18   43 1
    37   19   20 ar
    38   19   44 1
    39   20   26 1
    40   20   21 ar
    41   21   22 ar
    42   21   23 1
    43   22   45 1
    44   23   24 2
    45   23   25 am
    46   25   26 am
    47   25   46 1
    48   26   27 2
@<TRIPOS>MOLECULE
ZINC01133013
   46    48     0     0     0
SMALL
USER_CHARGES

@<TRIPOS>ATOM
      1 C1         15.2966    3.9098   -2.3433 C.3       1 <0>        -0.2134
      2 C2         13.7816    3.8497   -2.1381 C.3       1 <0>        -0.1563
      3 C3         13.4080    4.6181   -0.8689 C.3       1 <0>        -0.0714
      4 H1         13.7982    5.6340   -0.9310 H         1 <0>         0.0955
      5 C4         14.0097    3.9143    0.3492 C.3       1 <0>        -0.2054
      6 C5         11.9079    4.6637   -0.7325 C.ar      1 <0>        -0.1026
      7 C6         11.2542    5.8817   -0.7042 C.ar      1 <0>        -0.0880
      8 C7          9.8791    5.9262   -0.5793 C.ar      1 <0>        -0.1463
      9 C8          9.1541    4.7474   -0.4822 C.ar      1 <0>         0.0867
     10 C9          9.8129    3.5267   -0.5051 C.ar      1 <0>        -0.2227
     11 C10        11.1876    3.4874   -0.6364 C.ar      1 <0>        -0.0846
     12 O1          7.8013    4.7885   -0.3593 O.3       1 <0>        -0.1802
     13 C11         7.1201    3.5359   -0.2643 C.3       1 <0>        -0.0328
     14 C12         5.6384    3.7783   -0.1348 C.2       1 <0>         0.3008
     15 O2          5.2081    4.9122   -0.1248 O.2       1 <0>        -0.3138
     16 N1          4.7915    2.7352   -0.0300 N.am      1 <0>        -0.3293
     17 C13         3.4145    2.9547   -0.0060 C.ar      1 <0>         0.0780
     18 C14         2.9053    4.0865    0.6191 C.ar      1 <0>        -0.1169
     19 C15         1.5419    4.3153    0.6497 C.ar      1 <0>        -0.0401
     20 C16         0.6764    3.4100    0.0518 C.ar      1 <0>        -0.1530
     21 C17         1.1899    2.2597   -0.5838 C.ar      1 <0>        -0.1177
     22 C18         2.5548    2.0377   -0.6097 C.ar      1 <0>        -0.0948
     23 C19         0.0153    1.5274   -1.1037 C.2       1 <0>         0.3597
     24 O3          0.0470    0.4794   -1.7167 O.2       1 <0>        -0.3010
     25 N2         -1.0940    2.2202   -0.7886 N.am      1 <0>        -0.3552
     26 C20        -0.7892    3.3369   -0.1036 C.2       1 <0>         0.3590
     27 O4         -1.5874    4.1522    0.3135 O.2       1 <0>        -0.2982
     28 H2         15.6089    4.9494   -2.4427 H         1 <0>         0.0736
     29 H3         15.7975    3.4605   -1.4858 H         1 <0>         0.0749
     30 H4         15.5628    3.3624   -3.2475 H         1 <0>         0.0738
     31 H5         13.4694    2.8101   -2.0386 H         1 <0>         0.0802
     32 H6         13.2807    4.2991   -2.9955 H         1 <0>         0.0862
     33 H7         13.7435    4.4617    1.2534 H         1 <0>         0.0780
     34 H8         13.6195    2.8984    0.4113 H         1 <0>         0.0734
     35 H9         15.0947    3.8813    0.2505 H         1 <0>         0.0775
     36 H10        11.8190    6.7991   -0.7794 H         1 <0>         0.1375
     37 H11         9.3689    6.8778   -0.5575 H         1 <0>         0.1489
     38 H12         9.2512    2.6077   -0.4251 H         1 <0>         0.1264
     39 H13        11.7005    2.5373   -0.6587 H         1 <0>         0.1332
     40 H14         7.4774    2.9935    0.6111 H         1 <0>         0.0957
     41 H15         7.3150    2.9474   -1.1609 H         1 <0>         0.0985
     42 H16         5.1397    1.8317    0.0286 H         1 <0>         0.2366
     43 H17         3.5784    4.7915    1.0842 H         1 <0>         0.1787
     44 H18         1.1516    5.1963    1.1375 H         1 <0>         0.1569
     45 H19         2.9527    1.1588   -1.0953 H         1 <0>         0.1499
     46 H20        -1.9953    1.9489   -1.0229 H         1 <0>         0.2642
@<TRIPOS>BOND
     1    1    2 1
     2    1   28 1
     3    1   29 1
     4    1   30 1
     5    2    3 1
     6    2   31 1
     7    2   32 1
     8    3    4 1
     9    3    5 1
    10    3    6 1
    11    5   33 1
    12    5   34 1
    13    5   35 1
    14    6   11 ar
    15    6    7 ar
    16    7    8 ar
    17    7   36 1
    18    8    9 ar
    19    8   37 1
    20    9   10 ar
    21    9   12 1
    22   10   11 ar
    23   10   38 1
    24   11   39 1
    25   12   13 1
    26   13   14 1
    27   13   40 1
    28   13   41 1
    29   14   15 2
    30   14   16 am
    31   16   17 1
    32   16   42 1
    33   17   22 ar
    34   17   18 ar
    35   18   19 ar
    36   18   43 1
    37   19   20 ar
    38   19   44 1
    39   20   26 1
    40   20   21 ar
    41   21   22 ar
    42   21   23 1
    43   22   45 1
    44   23   24 2
    45   23   25 am
    46   25   26 am
    47   25   46 1
    48   26   27 2
@<TRIPOS>MOLECULE
ZINC01136286
   45    47     0     0     0
SMALL
USER_CHARGES

@<TRIPOS>ATOM
      1 C1          1.2065    3.3165    0.6785 C.ar      1 <0>        -0.1473
      2 C2          2.3640    4.0693    0.6655 C.ar      1 <0>        -0.1382
      3 C3          3.4720    3.6265   -0.0420 C.ar      1 <0>         0.0573
      4 C4          3.4202    2.4241   -0.7319 C.ar      1 <0>        -0.1366
      5 C5          2.2653    1.6673   -0.7152 C.ar      1 <0>        -0.1112
      6 C6          1.1555    2.1102   -0.0076 C.ar      1 <0>         0.0474
      7 N1         -0.0162    1.3436    0.0094 N.am      1 <0>        -0.3237
      8 C7          0.0589   -0.0021    0.0082 C.2       1 <0>         0.3496
      9 O1          1.1393   -0.5506   -0.0926 O.2       1 <0>        -0.3448
     10 C8         -1.1713   -0.8105    0.1294 C.ar      1 <0>        -0.1662
     11 C9         -2.4132   -0.1829    0.2512 C.ar      1 <0>        -0.0340
     12 C10        -3.5585   -0.9420    0.3577 C.ar      1 <0>        -0.1941
     13 C11        -3.4784   -2.3265    0.3567 C.ar      1 <0>         0.2128
     14 C12        -2.2478   -2.9545    0.2418 C.ar      1 <0>        -0.8042
     15 C13        -1.0964   -2.2049    0.1285 C.ar      1 <0>         0.0562
     16 S1         -2.1552   -4.7141    0.2402 S.o2      1 <0>         2.7616
     17 O2         -3.1222   -5.1708   -0.6955 O.2       1 <0>        -0.8985
     18 O3         -0.7779   -5.0483    0.1369 O.2       1 <0>        -0.9071
     19 N2         -2.6574   -5.2322    1.7308 N.pl3     1 <0>        -0.8333
     20 C14        -1.6936   -5.4100    2.8253 C.3       1 <0>        -0.0015
     21 C15        -2.1821   -4.6086    4.0415 C.3       1 <0>        -0.1774
     22 C16        -3.6104   -5.0362    4.3866 C.3       1 <0>        -0.1563
     23 C17        -4.5353   -4.7311    3.2061 C.3       1 <0>        -0.1763
     24 C18        -4.0743   -5.5286    1.9820 C.3       1 <0>        -0.0049
     25 F1         -4.6036   -3.0659    0.4675 F         1 <0>        -0.0872
     26 O4          4.6096    4.3711   -0.0589 O.3       1 <0>        -0.2900
     27 H1          0.3424    3.6637    1.2254 H         1 <0>         0.1304
     28 H2          2.4052    5.0054    1.2027 H         1 <0>         0.1417
     29 H3          4.2832    2.0799   -1.2825 H         1 <0>         0.1461
     30 H4          2.2252    0.7311   -1.2521 H         1 <0>         0.1694
     31 H5         -0.8819    1.7810    0.0180 H         1 <0>         0.2306
     32 H6         -2.4763    0.8952    0.2570 H         1 <0>         0.1348
     33 H7         -4.5198   -0.4578    0.4471 H         1 <0>         0.1544
     34 H8         -0.1382   -2.6951    0.0394 H         1 <0>         0.1897
     35 H9         -1.6253   -6.4667    3.0840 H         1 <0>         0.0924
     36 H10        -0.7152   -5.0441    2.5138 H         1 <0>         0.1094
     37 H11        -2.1673   -3.5439    3.8085 H         1 <0>         0.0850
     38 H12        -1.5283   -4.8046    4.8914 H         1 <0>         0.0901
     39 H13        -3.9510   -4.4889    5.2656 H         1 <0>         0.0828
     40 H14        -3.6289   -6.1058    4.5954 H         1 <0>         0.0848
     41 H15        -4.4984   -3.6653    2.9809 H         1 <0>         0.0838
     42 H16        -5.5565   -5.0143    3.4613 H         1 <0>         0.0899
     43 H17        -4.6674   -5.2408    1.1139 H         1 <0>         0.1165
     44 H18        -4.1963   -6.5947    2.1734 H         1 <0>         0.0911
     45 H19         4.6499    5.0113   -0.7825 H         1 <0>         0.2252
@<TRIPOS>BOND
     1    1    6 ar
     2    1    2 ar
     3    1   27 1
     4    2    3 ar
     5    2   28 1
     6    3    4 ar
     7    3   26 1
     8    4    5 ar
     9    4   29 1
    10    5    6 ar
    11    5   30 1
    12    6    7 1
    13    7    8 am
    14    7   31 1
    15    8    9 2
    16    8   10 1
    17   10   15 ar
    18   10   11 ar
    19   11   12 ar
    20   11   32 1
    21   12   13 ar
    22   12   33 1
    23   13   14 ar
    24   13   25 1
    25   14   15 ar
    26   14   16 1
    27   15   34 1
    28   16   17 2
    29   16   18 2
    30   16   19 1
    31   19   24 1
    32   19   20 1
    33   20   21 1
    34   20   35 1
    35   20   36 1
    36   21   22 1
    37   21   37 1
    38   21   38 1
    39   22   23 1
    40   22   39 1
    41   22   40 1
    42   23   24 1
    43   23   41 1
    44   23   42 1
    45   24   43 1
    46   24   44 1
    47   26   45 1
@<TRIPOS>MOLECULE
ZINC01137185
   45    46     0     0     0
SMALL
USER_CHARGES

@<TRIPOS>ATOM
      1 C1         -1.3043   13.7633   -0.7886 C.3       1 <0>        -0.2439
      2 C2         -0.8307   12.5811   -1.6366 C.3       1 <0>         0.0907
      3 C3         -1.0334   12.9029   -3.1185 C.3       1 <0>        -0.2109
      4 C4         -1.6386   11.3346   -1.2702 C.3       1 <0>        -0.2444
      5 N1          0.5905   12.3347   -1.3803 N.pl3     1 <0>        -0.8734
      6 S1          1.0820   11.7911    0.1047 S.o2      1 <0>         2.7667
      7 O1          0.3064   12.4886    1.0696 O.2       1 <0>        -0.9217
      8 O2          2.5026   11.8254    0.0999 O.2       1 <0>        -0.9126
      9 C5          0.6196   10.0946    0.2177 C.ar      1 <0>        -0.7729
     10 C6          1.3631    9.1316   -0.4397 C.ar      1 <0>        -0.0099
     11 C7          1.0036    7.8010   -0.3528 C.ar      1 <0>        -0.1499
     12 C8         -0.1063    7.4305    0.3955 C.ar      1 <0>         0.1095
     13 C9         -0.8545    8.4009    1.0495 C.ar      1 <0>        -0.1854
     14 C10        -0.4857    9.7290    0.9639 C.ar      1 <0>        -0.0127
     15 N2         -0.4730    6.0840    0.4856 N.am      1 <0>        -0.3261
     16 C11         0.4764    5.1281    0.5241 C.2       1 <0>         0.3500
     17 O3          1.6469    5.4284    0.3924 O.2       1 <0>        -0.3327
     18 C12         0.0942    3.7146    0.7265 C.ar      1 <0>        -0.1358
     19 C13        -1.2492    3.3663    0.8780 C.ar      1 <0>        -0.0683
     20 C14        -1.5990    2.0455    1.0670 C.ar      1 <0>        -0.1401
     21 C15        -0.6216    1.0667    1.1069 C.ar      1 <0>        -0.0465
     22 C16         0.7119    1.4056    0.9626 C.ar      1 <0>        -0.1184
     23 C17         1.0749    2.7224    0.7673 C.ar      1 <0>        -0.0097
     24 N3          1.7510    0.3527    1.0123 N.pl3     1 <0>         0.5481
     25 O4          1.4316   -0.8107    1.1800 O.2       1 <0>        -0.3513
     26 O5          2.9254    0.6496    0.8855 O.3       1 <0>        -0.3411
     27 H1         -0.7392   14.6549   -1.0604 H         1 <0>         0.0825
     28 H2         -2.3653   13.9370   -0.9677 H         1 <0>         0.0775
     29 H3         -1.1456   13.5403    0.2665 H         1 <0>         0.1284
     30 H4         -0.6960   12.0607   -3.7227 H         1 <0>         0.0780
     31 H5         -2.0908   13.0863   -3.3092 H         1 <0>         0.0865
     32 H6         -0.4578   13.7910   -3.3796 H         1 <0>         0.0831
     33 H7         -1.6718   11.2289   -0.1858 H         1 <0>         0.0865
     34 H8         -2.6530   11.4325   -1.6569 H         1 <0>         0.0906
     35 H9         -1.1667   10.4544   -1.7068 H         1 <0>         0.0853
     36 H10         1.2436   12.4899   -2.0805 H         1 <0>         0.2436
     37 H11         2.2260    9.4203   -1.0214 H         1 <0>         0.1501
     38 H12         1.5851    7.0493   -0.8658 H         1 <0>         0.1704
     39 H13        -1.7209    8.1165    1.6282 H         1 <0>         0.1351
     40 H14        -1.0639   10.4835    1.4767 H         1 <0>         0.1582
     41 H15        -1.4106    5.8380    0.5204 H         1 <0>         0.2350
     42 H16        -2.0129    4.1294    0.8478 H         1 <0>         0.1360
     43 H17        -2.6378    1.7748    1.1843 H         1 <0>         0.1528
     44 H18        -0.9007    0.0341    1.2558 H         1 <0>         0.1706
     45 H19         2.1160    2.9852    0.6511 H         1 <0>         0.1927
@<TRIPOS>BOND
     1    1    2 1
     2    1   27 1
     3    1   28 1
     4    1   29 1
     5    2    3 1
     6    2    4 1
     7    2    5 1
     8    3   30 1
     9    3   31 1
    10    3   32 1
    11    4   33 1
    12    4   34 1
    13    4   35 1
    14    5    6 1
    15    5   36 1
    16    6    7 2
    17    6    8 2
    18    6    9 1
    19    9   14 ar
    20    9   10 ar
    21   10   11 ar
    22   10   37 1
    23   11   12 ar
    24   11   38 1
    25   12   13 ar
    26   12   15 1
    27   13   14 ar
    28   13   39 1
    29   14   40 1
    30   15   16 am
    31   15   41 1
    32   16   17 2
    33   16   18 1
    34   18   23 ar
    35   18   19 ar
    36   19   20 ar
    37   19   42 1
    38   20   21 ar
    39   20   43 1
    40   21   22 ar
    41   21   44 1
    42   22   23 ar
    43   22   24 1
    44   23   45 1
    45   24   25 2
    46   24   26 1
@<TRIPOS>MOLECULE
ZINC01148703
   43    45     0     0     0
SMALL
USER_CHARGES

@<TRIPOS>ATOM
      1 C1          8.7274   -5.5796   -2.5116 C.3       1 <0>        -0.2042
      2 C2          9.1654   -5.3654   -1.0614 C.3       1 <0>        -0.1074
      3 C3         10.4811   -6.1052   -0.8114 C.3       1 <0>        -0.2089
      4 C4          9.3641   -3.8703   -0.8042 C.3       1 <0>         0.0480
      5 H1         10.1273   -3.4873   -1.4816 H         1 <0>         0.1229
      6 C5          8.0699   -3.1458   -1.0505 C.2       1 <0>        -0.2987
      7 C6          7.6401   -2.9053   -2.3612 C.2       1 <0>         0.3443
      8 O1          8.3074   -3.2789   -3.3127 O.2       1 <0>        -0.3515
      9 N1          6.4713   -2.2580   -2.5532 N.am      1 <0>        -0.2752
     10 H2          6.1424   -2.0837   -3.4813 H         1 <0>         0.2628
     11 C7          5.7403   -1.8424   -1.4817 C.2       1 <0>         0.0225
     12 N2          6.1425   -2.0672   -0.2479 N.2       1 <0>        -0.2672
     13 C8          7.2898   -2.7093    0.0026 C.2       1 <0>         0.2248
     14 O2          7.6698   -2.9227    1.2808 O.3       1 <0>        -0.1290
     15 C9          8.9528   -3.2094    1.5613 C.2       1 <0>         0.2633
     16 C10         9.8098   -3.6638    0.6170 C.2       1 <0>        -0.2575
     17 C11        11.1651   -3.9525    0.9780 C.1       1 <0>        -0.0579
     18 N3         12.2403   -4.1816    1.2643 N.1       1 <0>        -0.0795
     19 N4          9.4077   -3.0367    2.8447 N.pl3     1 <0>        -0.3874
     20 S1          4.2207   -0.9925   -1.7519 S.3       1 <0>         0.2412
     21 C12         3.7112   -0.7071   -0.0387 C.3       1 <0>        -0.2072
     22 C13         2.3960    0.0285   -0.0217 C.ar      1 <0>        -0.0914
     23 C14         1.2084   -0.6789   -0.0136 C.ar      1 <0>        -0.1077
     24 C15         0.0021   -0.0041    0.0020 C.ar      1 <0>        -0.1271
     25 C16        -0.0167    1.3781    0.0096 C.ar      1 <0>        -0.1146
     26 C17         1.1709    2.0855    0.0021 C.ar      1 <0>        -0.1272
     27 C18         2.3773    1.4107   -0.0136 C.ar      1 <0>        -0.1080
     28 H3          9.4943   -5.1942   -3.1835 H         1 <0>         0.0944
     29 H4          8.5858   -6.6448   -2.6948 H         1 <0>         0.0620
     30 H5          7.7901   -5.0526   -2.6897 H         1 <0>         0.0779
     31 H6          8.3985   -5.7509   -0.3895 H         1 <0>         0.0852
     32 H7         10.7931   -5.9526    0.2218 H         1 <0>         0.0781
     33 H8         10.3395   -7.1703   -0.9946 H         1 <0>         0.0735
     34 H9         11.2480   -5.7197   -1.4832 H         1 <0>         0.0789
     35 H10        10.3306   -3.2395    3.0635 H         1 <0>         0.2599
     36 H11         8.8062   -2.7119    3.5329 H         1 <0>         0.2300
     37 H12         4.4678   -0.1105    0.4708 H         1 <0>         0.1307
     38 H13         3.5989   -1.6640    0.4711 H         1 <0>         0.1314
     39 H14         1.2231   -1.7587   -0.0199 H         1 <0>         0.1360
     40 H15        -0.9258   -0.5567    0.0079 H         1 <0>         0.1352
     41 H16        -0.9592    1.9054    0.0170 H         1 <0>         0.1339
     42 H17         1.1563    3.1654    0.0077 H         1 <0>         0.1352
     43 H18         3.3051    1.9634   -0.0195 H         1 <0>         0.1357
@<TRIPOS>BOND
     1    1    2 1
     2    1   28 1
     3    1   29 1
     4    1   30 1
     5    2    3 1
     6    2    4 1
     7    2   31 1
     8    3   32 1
     9    3   33 1
    10    3   34 1
    11    4    5 1
    12    4   16 1
    13    4    6 1
    14    6   13 2
    15    6    7 1
    16    7    8 2
    17    7    9 am
    18    9   10 1
    19    9   11 1
    20   11   12 2
    21   11   20 1
    22   12   13 1
    23   13   14 1
    24   14   15 1
    25   15   16 2
    26   15   19 1
    27   16   17 1
    28   17   18 3
    29   19   35 1
    30   19   36 1
    31   20   21 1
    32   21   22 1
    33   21   37 1
    34   21   38 1
    35   22   27 ar
    36   22   23 ar
    37   23   24 ar
    38   23   39 1
    39   24   25 ar
    40   24   40 1
    41   25   26 ar
    42   25   41 1
    43   26   27 ar
    44   26   42 1
    45   27   43 1
@<TRIPOS>MOLECULE
ZINC01148705
   43    45     0     0     0
SMALL
USER_CHARGES

@<TRIPOS>ATOM
      1 C1          1.7178   -4.2012    1.3628 C.3       1 <0>        -0.2089
      2 C2          1.6447   -2.6730    1.3729 C.3       1 <0>        -0.1073
      3 C3          3.0063   -2.0999    1.7713 C.3       1 <0>        -0.2040
      4 C4          1.2688   -2.1712   -0.0228 C.3       1 <0>         0.0480
      5 H1          2.0217   -2.4989   -0.7396 H         1 <0>         0.1229
      6 C5          1.2130   -0.6686   -0.0135 C.2       1 <0>        -0.2987
      7 C6          2.3983    0.0767   -0.0207 C.2       1 <0>         0.3445
      8 O1          3.4838   -0.4817   -0.0338 O.2       1 <0>        -0.3517
      9 N1          2.3185    1.4242   -0.0125 N.am      1 <0>        -0.2752
     10 H2          3.1531    1.9750   -0.0174 H         1 <0>         0.2628
     11 C7          1.1002    2.0330    0.0025 C.2       1 <0>         0.0224
     12 N2         -0.0161    1.3343    0.0094 N.2       1 <0>        -0.2672
     13 C8          0.0021   -0.0041    0.0020 C.2       1 <0>         0.2246
     14 O2         -1.1627   -0.6874    0.0103 O.3       1 <0>        -0.1290
     15 C9         -1.1888   -1.9752   -0.3740 C.2       1 <0>         0.2634
     16 C10        -0.0695   -2.7357   -0.4119 C.2       1 <0>        -0.2577
     17 C11        -0.1615   -4.1021   -0.8305 C.1       1 <0>        -0.0579
     18 N3         -0.2345   -5.1860   -1.1626 N.1       1 <0>        -0.0794
     19 N4         -2.3870   -2.5364   -0.7387 N.pl3     1 <0>        -0.3874
     20 S1          1.0159    3.7930    0.0128 S.3       1 <0>         0.2412
     21 C12        -0.7795    4.0215    0.0312 C.3       1 <0>        -0.2072
     22 C13        -1.0983    5.4944    0.0422 C.ar      1 <0>        -0.0914
     23 C14        -1.2386    6.1622    1.2443 C.ar      1 <0>        -0.1077
     24 C15        -1.5258    7.5144    1.2544 C.ar      1 <0>        -0.1271
     25 C16        -1.6835    8.1964    0.0623 C.ar      1 <0>        -0.1146
     26 C17        -1.5488    7.5273   -1.1398 C.ar      1 <0>        -0.1272
     27 C18        -1.2559    6.1764   -1.1499 C.ar      1 <0>        -0.1080
     28 H3          1.9857   -4.5588    2.3570 H         1 <0>         0.0735
     29 H4          0.7479   -4.6095    1.0789 H         1 <0>         0.0781
     30 H5          2.4721   -4.5242    0.6452 H         1 <0>         0.0788
     31 H6          0.8905   -2.3501    2.0905 H         1 <0>         0.0853
     32 H7          2.9542   -1.0112    1.7785 H         1 <0>         0.0769
     33 H8          3.2741   -2.4575    2.7656 H         1 <0>         0.0621
     34 H9          3.7605   -2.4229    1.0537 H         1 <0>         0.0951
     35 H10        -3.1982   -2.0049   -0.7167 H         1 <0>         0.2300
     36 H11        -2.4227   -3.4645   -1.0185 H         1 <0>         0.2600
     37 H12        -1.2133    3.5625   -0.8572 H         1 <0>         0.1306
     38 H13        -1.1963    3.5529    0.9227 H         1 <0>         0.1314
     39 H14        -1.1198    5.6285    2.1757 H         1 <0>         0.1360
     40 H15        -1.6308    8.0372    2.1936 H         1 <0>         0.1352
     41 H16        -1.9116    9.2520    0.0702 H         1 <0>         0.1339
     42 H17        -1.6720    8.0601   -2.0711 H         1 <0>         0.1351
     43 H18        -1.1507    5.6536   -2.0891 H         1 <0>         0.1357
@<TRIPOS>BOND
     1    1    2 1
     2    1   28 1
     3    1   29 1
     4    1   30 1
     5    2    3 1
     6    2    4 1
     7    2   31 1
     8    3   32 1
     9    3   33 1
    10    3   34 1
    11    4    5 1
    12    4   16 1
    13    4    6 1
    14    6   13 2
    15    6    7 1
    16    7    8 2
    17    7    9 am
    18    9   10 1
    19    9   11 1
    20   11   12 2
    21   11   20 1
    22   12   13 1
    23   13   14 1
    24   14   15 1
    25   15   16 2
    26   15   19 1
    27   16   17 1
    28   17   18 3
    29   19   35 1
    30   19   36 1
    31   20   21 1
    32   21   22 1
    33   21   37 1
    34   21   38 1
    35   22   27 ar
    36   22   23 ar
    37   23   24 ar
    38   23   39 1
    39   24   25 ar
    40   24   40 1
    41   25   26 ar
    42   25   41 1
    43   26   27 ar
    44   26   42 1
    45   27   43 1
@<TRIPOS>MOLECULE
ZINC01149065
   42    44     0     0     0
SMALL
USER_CHARGES

@<TRIPOS>ATOM
      1 C1          6.7974   -0.5509   -5.4602 C.3       1 <0>        -0.0711
      2 O1          5.9231   -0.5064   -4.3307 O.3       1 <0>        -0.1819
      3 C2          6.3198   -1.1771   -3.2161 C.ar      1 <0>         0.1154
      4 C3          7.5200   -1.8601   -3.2121 C.ar      1 <0>        -0.1529
      5 C4          7.9248   -2.5498   -2.0629 C.ar      1 <0>         0.0055
      6 C5          7.1102   -2.5428   -0.9241 C.ar      1 <0>        -0.0977
      7 C6          5.9174   -1.8539   -0.9357 C.ar      1 <0>        -0.1495
      8 C7          5.5144   -1.1751   -2.0779 C.ar      1 <0>         0.0808
      9 O2          4.3343   -0.5022   -2.0848 O.3       1 <0>        -0.1817
     10 C8          3.5582   -0.5414   -0.8855 C.3       1 <0>         0.0226
     11 C9          2.2933    0.2545   -1.0795 C.ar      1 <0>        -0.0902
     12 C10         1.1548   -0.3637   -1.5619 C.ar      1 <0>        -0.0992
     13 C11        -0.0054    0.3664   -1.7398 C.ar      1 <0>        -0.1309
     14 C12        -0.0273    1.7146   -1.4354 C.ar      1 <0>        -0.1139
     15 C13         1.1110    2.3327   -0.9526 C.ar      1 <0>        -0.1313
     16 C14         2.2713    1.6027   -0.7747 C.ar      1 <0>        -0.1003
     17 N1          7.5332   -3.2708    0.2934 N.pl3     1 <0>         0.5551
     18 O3          6.8760   -3.1823    1.3151 O.2       1 <0>        -0.3543
     19 O4          8.5385   -3.9582    0.2736 O.3       1 <0>        -0.3693
     20 C15         9.1998   -3.2787   -2.0520 C.2       1 <0>        -0.0689
     21 C16         9.5573   -4.0360   -3.1195 C.2       1 <0>        -0.0659
     22 C17         8.7353   -4.3721   -4.2921 C.2       1 <0>         0.3407
     23 O5          7.5881   -4.0254   -4.5042 O.2       1 <0>        -0.3066
     24 N2          9.5095   -5.1392   -5.0861 N.am      1 <0>        -0.3557
     25 C18        10.7125   -5.3137   -4.5179 C.2       1 <0>         0.4019
     26 O6         11.6159   -5.9660   -5.0051 O.2       1 <0>        -0.3496
     27 N3         10.7874   -4.6714   -3.3389 N.am      1 <0>        -0.3207
     28 H1          6.3629    0.0229   -6.2788 H         1 <0>         0.1172
     29 H2          7.7629   -0.1236   -5.1894 H         1 <0>         0.0662
     30 H3          6.9332   -1.5859   -5.7739 H         1 <0>         0.0827
     31 H4          8.1448   -1.8620   -4.0931 H         1 <0>         0.1615
     32 H5          5.2918   -1.8455   -0.0553 H         1 <0>         0.1744
     33 H6          4.1347   -0.1132   -0.0655 H         1 <0>         0.0843
     34 H7          3.3046   -1.5750   -0.6504 H         1 <0>         0.0859
     35 H8          1.1720   -1.4170   -1.8000 H         1 <0>         0.1344
     36 H9         -0.8948   -0.1165   -2.1170 H         1 <0>         0.1332
     37 H10        -0.9324    2.2860   -1.5790 H         1 <0>         0.1315
     38 H11         1.0940    3.3861   -0.7151 H         1 <0>         0.1328
     39 H12         3.1607    2.0856   -0.3975 H         1 <0>         0.1330
     40 H13         9.8527   -3.2119   -1.1943 H         1 <0>         0.1787
     41 H14         9.2362   -5.5127   -5.9385 H         1 <0>         0.2756
     42 H15        11.5552   -4.6512   -2.7465 H         1 <0>         0.2781
@<TRIPOS>BOND
     1    1    2 1
     2    1   28 1
     3    1   29 1
     4    1   30 1
     5    2    3 1
     6    3    8 ar
     7    3    4 ar
     8    4    5 ar
     9    4   31 1
    10    5    6 ar
    11    5   20 1
    12    6    7 ar
    13    6   17 1
    14    7    8 ar
    15    7   32 1
    16    8    9 1
    17    9   10 1
    18   10   11 1
    19   10   33 1
    20   10   34 1
    21   11   16 ar
    22   11   12 ar
    23   12   13 ar
    24   12   35 1
    25   13   14 ar
    26   13   36 1
    27   14   15 ar
    28   14   37 1
    29   15   16 ar
    30   15   38 1
    31   16   39 1
    32   17   18 2
    33   17   19 1
    34   20   21 2
    35   20   40 1
    36   21   27 1
    37   21   22 1
    38   22   23 2
    39   22   24 am
    40   24   25 am
    41   24   41 1
    42   25   26 2
    43   25   27 am
    44   27   42 1
@<TRIPOS>MOLECULE
ZINC01150082
   42    44     0     0     0
SMALL
USER_CHARGES

@<TRIPOS>ATOM
      1 C1          0.0470   -0.8115    3.5817 C.3       1 <0>        -0.0658
      2 O1          0.0250   -0.0292    2.3861 O.3       1 <0>        -0.1992
      3 C2          0.0230   -0.7051    1.2060 C.ar      1 <0>         0.0644
      4 C3          0.0423   -2.0869    1.2013 C.ar      1 <0>        -0.1883
      5 C4          0.0402   -2.7786   -0.0144 C.ar      1 <0>        -0.0363
      6 C5          0.0186   -2.0677   -1.2187 C.ar      1 <0>        -0.1073
      7 C6         -0.0057   -0.6893   -1.2044 C.ar      1 <0>        -0.1318
      8 C7          0.0021   -0.0041    0.0020 C.ar      1 <0>         0.0600
      9 O2         -0.0164    1.3553    0.0095 O.3       1 <0>        -0.2767
     10 C8          0.0610   -4.2497   -0.0263 C.2       1 <0>        -0.0051
     11 N1          0.0590   -4.8933   -1.1621 N.2       1 <0>        -0.1373
     12 N2          0.0774   -6.1831   -1.1725 N.2       1 <0>        -0.1746
     13 C9          0.0753   -6.8322   -2.3178 C.2       1 <0>         0.0414
     14 N3          0.0923   -8.1955   -2.5239 N.am      1 <0>        -0.3058
     15 C10         0.0885   -8.7282   -3.7339 C.2       1 <0>         0.3082
     16 O3          0.1043   -9.9279   -3.9097 O.2       1 <0>        -0.3104
     17 C11         0.0636   -7.7426   -4.8909 C.3       1 <0>        -0.2273
     18 H1         -0.8394   -7.8597   -5.4900 H         1 <0>         0.1643
     19 S1          0.0421   -6.1537   -3.9701 S.3       1 <0>         0.1385
     20 C12         1.3188   -7.8719   -5.7562 C.3       1 <0>        -0.0975
     21 C13         1.1975   -6.9675   -6.9555 C.ar      1 <0>        -0.0934
     22 C14         0.6305   -7.4411   -8.1239 C.ar      1 <0>        -0.1195
     23 C15         0.5145   -6.6099   -9.2223 C.ar      1 <0>        -0.1271
     24 C16         0.9753   -5.3083   -9.1559 C.ar      1 <0>        -0.1223
     25 C17         1.5474   -4.8364   -7.9893 C.ar      1 <0>        -0.1256
     26 C18         1.6582   -5.6659   -6.8891 C.ar      1 <0>        -0.1132
     27 H2         -0.8341   -1.4525    3.6128 H         1 <0>         0.0697
     28 H3          0.9456   -1.4283    3.5959 H         1 <0>         0.0656
     29 H4          0.0462   -0.1506    4.4485 H         1 <0>         0.1114
     30 H5          0.0592   -2.6313    2.1339 H         1 <0>         0.1410
     31 H6          0.0166   -2.5983   -2.1593 H         1 <0>         0.1585
     32 H7         -0.0268   -0.1413   -2.1349 H         1 <0>         0.1482
     33 H8          0.8616    1.7606    0.0033 H         1 <0>         0.2272
     34 H9          0.0780   -4.7970    0.9046 H         1 <0>         0.1231
     35 H10         0.1079   -8.7847   -1.7535 H         1 <0>         0.2535
     36 H11         2.1936   -7.5858   -5.1724 H         1 <0>         0.1058
     37 H12         1.4258   -8.9043   -6.0891 H         1 <0>         0.1166
     38 H13         0.2746   -8.4594   -8.1773 H         1 <0>         0.1318
     39 H14         0.0672   -6.9785  -10.1336 H         1 <0>         0.1316
     40 H15         0.8880   -4.6600  -10.0152 H         1 <0>         0.1308
     41 H16         1.9074   -3.8194   -7.9373 H         1 <0>         0.1325
     42 H17         2.1052   -5.2971   -5.9776 H         1 <0>         0.1402
@<TRIPOS>BOND
     1    1    2 1
     2    1   27 1
     3    1   28 1
     4    1   29 1
     5    2    3 1
     6    3    8 ar
     7    3    4 ar
     8    4    5 ar
     9    4   30 1
    10    5    6 ar
    11    5   10 1
    12    6    7 ar
    13    6   31 1
    14    7    8 ar
    15    7   32 1
    16    8    9 1
    17    9   33 1
    18   10   11 2
    19   10   34 1
    20   11   12 1
    21   12   13 2
    22   13   19 1
    23   13   14 1
    24   14   15 am
    25   14   35 1
    26   15   16 2
    27   15   17 1
    28   17   18 1
    29   17   19 1
    30   17   20 1
    31   20   21 1
    32   20   36 1
    33   20   37 1
    34   21   26 ar
    35   21   22 ar
    36   22   23 ar
    37   22   38 1
    38   23   24 ar
    39   23   39 1
    40   24   25 ar
    41   24   40 1
    42   25   26 ar
    43   25   41 1
    44   26   42 1
@<TRIPOS>MOLECULE
ZINC01150869
   40    41     0     0     0
SMALL
USER_CHARGES

@<TRIPOS>ATOM
      1 C1         -2.5316    6.8640    7.1864 C.3       1 <0>        -0.2426
      2 C2         -3.0221    5.4940    6.7944 C.2       1 <0>         0.3248
      3 O1         -3.5773    5.3306    5.7286 O.2       1 <0>        -0.3309
      4 N1         -2.8437    4.4503    7.6283 N.am      1 <0>        -0.8307
      5 S1         -3.3827    2.9448    7.1976 S.o2      1 <0>         2.7490
      6 O2         -4.7246    3.1042    6.7584 O.2       1 <0>        -0.8825
      7 O3         -3.0271    2.0676    8.2574 O.2       1 <0>        -0.9098
      8 C3         -2.4490    2.4399    5.7912 C.ar      1 <0>        -0.7784
      9 C4         -1.2667    1.7434    5.9618 C.ar      1 <0>        -0.0139
     10 C5         -0.5325    1.3462    4.8614 C.ar      1 <0>        -0.1568
     11 C6         -0.9830    1.6470    3.5827 C.ar      1 <0>         0.1173
     12 C7         -2.1679    2.3516    3.4149 C.ar      1 <0>        -0.1887
     13 C8         -2.9005    2.7405    4.5192 C.ar      1 <0>         0.0123
     14 N2         -0.2416    1.2460    2.4658 N.am      1 <0>        -0.3285
     15 C9          0.4278    0.0763    2.4858 C.2       1 <0>         0.3198
     16 O4          0.4568   -0.5885    3.4998 O.2       1 <0>        -0.3232
     17 C10         1.1402   -0.4054    1.2483 C.3       1 <0>        -0.3183
     18 S2          1.9401   -1.9968    1.5920 S.3       1 <0>         0.2517
     19 C11         2.7188   -2.4202    0.0692 C.ar      1 <0>        -0.2079
     20 C12         2.6079   -1.5750   -1.0285 C.ar      1 <0>        -0.1537
     21 C13         3.2251   -1.9068   -2.2183 C.ar      1 <0>        -0.1096
     22 C14         3.9422   -3.0848   -2.3223 C.ar      1 <0>        -0.1347
     23 C15         4.0496   -3.9313   -1.2339 C.ar      1 <0>        -0.1103
     24 C16         3.4407   -3.6028   -0.0389 C.ar      1 <0>        -0.1075
     25 H1         -1.4533    6.8329    7.3425 H         1 <0>         0.0995
     26 H2         -2.7635    7.5738    6.3924 H         1 <0>         0.1204
     27 H3         -3.0233    7.1761    8.1078 H         1 <0>         0.1039
     28 H4         -2.3996    4.5809    8.4807 H         1 <0>         0.2531
     29 H5         -0.9171    1.5095    6.9565 H         1 <0>         0.1515
     30 H6          0.3906    0.8020    4.9953 H         1 <0>         0.1713
     31 H7         -2.5185    2.5909    2.4218 H         1 <0>         0.1380
     32 H8         -3.8245    3.2843    4.3893 H         1 <0>         0.1721
     33 H9         -0.2094    1.8097    1.6771 H         1 <0>         0.2362
     34 H10         1.8948    0.3249    0.9560 H         1 <0>         0.1215
     35 H11         0.4204   -0.5279    0.4391 H         1 <0>         0.1247
     36 H12         2.0440   -0.6573   -0.9494 H         1 <0>         0.1224
     37 H13         3.1436   -1.2480   -3.0702 H         1 <0>         0.1302
     38 H14         4.4198   -3.3441   -3.2556 H         1 <0>         0.1316
     39 H15         4.6107   -4.8502   -1.3186 H         1 <0>         0.1345
     40 H16         3.5250   -4.2643    0.8106 H         1 <0>         0.1421
@<TRIPOS>BOND
     1    1    2 1
     2    1   25 1
     3    1   26 1
     4    1   27 1
     5    2    3 2
     6    2    4 am
     7    4    5 1
     8    4   28 1
     9    5    6 2
    10    5    7 2
    11    5    8 1
    12    8   13 ar
    13    8    9 ar
    14    9   10 ar
    15    9   29 1
    16   10   11 ar
    17   10   30 1
    18   11   12 ar
    19   11   14 1
    20   12   13 ar
    21   12   31 1
    22   13   32 1
    23   14   15 am
    24   14   33 1
    25   15   16 2
    26   15   17 1
    27   17   18 1
    28   17   34 1
    29   17   35 1
    30   18   19 1
    31   19   24 ar
    32   19   20 ar
    33   20   21 ar
    34   20   36 1
    35   21   22 ar
    36   21   37 1
    37   22   23 ar
    38   22   38 1
    39   23   24 ar
    40   23   39 1
    41   24   40 1
@<TRIPOS>MOLECULE
ZINC01151507
   45    46     0     0     0
SMALL
USER_CHARGES

@<TRIPOS>ATOM
      1 C1         -1.5332    5.8702    7.5414 C.3       1 <0>        -0.2127
      2 C2         -3.0192    5.9496    7.1862 C.3       1 <0>        -0.0570
      3 H1         -3.1642    6.6813    6.3914 H         1 <0>         0.1125
      4 C3         -3.5042    4.5783    6.7116 C.3       1 <0>        -0.1810
      5 C4         -2.8059    4.2157    5.4263 C.2       1 <0>         0.3040
      6 O1         -1.9997    4.9790    4.9379 O.2       1 <0>        -0.3524
      7 N1         -3.0773    3.0433    4.8195 N.am      1 <0>        -0.3315
      8 C5         -2.3600    2.6628    3.6799 C.ar      1 <0>         0.1180
      9 C6         -1.9511    3.6220    2.7627 C.ar      1 <0>        -0.1577
     10 C7         -1.2429    3.2433    1.6391 C.ar      1 <0>        -0.0152
     11 C8         -0.9405    1.9107    1.4272 C.ar      1 <0>        -0.7801
     12 C9         -1.3508    0.9525    2.3359 C.ar      1 <0>         0.0118
     13 C10        -2.0551    1.3253    3.4640 C.ar      1 <0>        -0.1907
     14 S1         -0.0368    1.4316   -0.0076 S.o2      1 <0>         2.7494
     15 O2         -0.2473    2.4479   -0.9782 O.2       1 <0>        -0.9129
     16 O3         -0.3543    0.0681   -0.2511 O.2       1 <0>        -0.8849
     17 N2          1.5706    1.4801    0.3874 N.am      1 <0>        -0.8290
     18 C11         2.0627    0.6339    1.3139 C.2       1 <0>         0.3259
     19 O4          1.3282   -0.1630    1.8583 O.2       1 <0>        -0.3321
     20 C12         3.5255    0.6780    1.6734 C.3       1 <0>        -0.2381
     21 C13        -3.8048    6.3669    8.4026 C.ar      1 <0>        -0.0774
     22 C14        -3.7801    5.5858    9.5428 C.ar      1 <0>        -0.1267
     23 C15        -4.4973    5.9709   10.6601 C.ar      1 <0>        -0.1257
     24 C16        -5.2468    7.1321   10.6340 C.ar      1 <0>        -0.1290
     25 C17        -5.2753    7.9108    9.4921 C.ar      1 <0>        -0.1250
     26 C18        -4.5547    7.5279    8.3763 C.ar      1 <0>        -0.1213
     27 H2         -1.3882    5.1385    8.3362 H         1 <0>         0.0669
     28 H3         -0.9649    5.5683    6.6615 H         1 <0>         0.1061
     29 H4         -1.1877    6.8471    7.8795 H         1 <0>         0.0817
     30 H5         -4.5806    4.6119    6.5433 H         1 <0>         0.1081
     31 H6         -3.2783    3.8301    7.4714 H         1 <0>         0.1069
     32 H7         -3.7698    2.4632    5.1728 H         1 <0>         0.2372
     33 H8         -2.1864    4.6630    2.9280 H         1 <0>         0.1703
     34 H9         -0.9246    3.9887    0.9253 H         1 <0>         0.1500
     35 H10        -1.1169   -0.0879    2.1653 H         1 <0>         0.1711
     36 H11        -2.3717    0.5770    4.1754 H         1 <0>         0.1377
     37 H12         2.1581    2.1175   -0.0480 H         1 <0>         0.2534
     38 H13         4.0209    1.4510    1.0858 H         1 <0>         0.0839
     39 H14         3.6323    0.9037    2.7344 H         1 <0>         0.1168
     40 H15         3.9814   -0.2888    1.4599 H         1 <0>         0.1195
     41 H16        -3.1978    4.6764    9.5619 H         1 <0>         0.1279
     42 H17        -4.4747    5.3627   11.5523 H         1 <0>         0.1292
     43 H18        -5.8098    7.4312   11.5057 H         1 <0>         0.1295
     44 H19        -5.8609    8.8180    9.4717 H         1 <0>         0.1304
     45 H20        -4.5773    8.1361    7.4841 H         1 <0>         0.1320
@<TRIPOS>BOND
     1    1    2 1
     2    1   27 1
     3    1   28 1
     4    1   29 1
     5    2    3 1
     6    2    4 1
     7    2   21 1
     8    4    5 1
     9    4   30 1
    10    4   31 1
    11    5    6 2
    12    5    7 am
    13    7    8 1
    14    7   32 1
    15    8   13 ar
    16    8    9 ar
    17    9   10 ar
    18    9   33 1
    19   10   11 ar
    20   10   34 1
    21   11   12 ar
    22   11   14 1
    23   12   13 ar
    24   12   35 1
    25   13   36 1
    26   14   15 2
    27   14   16 2
    28   14   17 1
    29   17   18 am
    30   17   37 1
    31   18   19 2
    32   18   20 1
    33   20   38 1
    34   20   39 1
    35   20   40 1
    36   21   26 ar
    37   21   22 ar
    38   22   23 ar
    39   22   41 1
    40   23   24 ar
    41   23   42 1
    42   24   25 ar
    43   24   43 1
    44   25   26 ar
    45   25   44 1
    46   26   45 1
@<TRIPOS>MOLECULE
ZINC01151508
   45    46     0     0     0
SMALL
USER_CHARGES

@<TRIPOS>ATOM
      1 C1         -3.4461    7.0185    6.1781 C.3       1 <0>        -0.2129
      2 C2         -3.0192    5.9496    7.1862 C.3       1 <0>        -0.0571
      3 H1         -1.9324    5.9419    7.2692 H         1 <0>         0.1121
      4 C3         -3.5042    4.5783    6.7116 C.3       1 <0>        -0.1812
      5 C4         -2.8059    4.2157    5.4263 C.2       1 <0>         0.3020
      6 O1         -1.9997    4.9790    4.9379 O.2       1 <0>        -0.3458
      7 N1         -3.0773    3.0433    4.8195 N.am      1 <0>        -0.3326
      8 C5         -2.3508    2.6565    3.6879 C.ar      1 <0>         0.1223
      9 C6         -1.0136    3.0108    3.5649 C.ar      1 <0>        -0.1592
     10 C7         -0.2992    2.6272    2.4469 C.ar      1 <0>        -0.0131
     11 C8         -0.9138    1.8906    1.4509 C.ar      1 <0>        -0.7817
     12 C9         -2.2465    1.5408    1.5680 C.ar      1 <0>         0.0140
     13 C10        -2.9652    1.9172    2.6857 C.ar      1 <0>        -0.1920
     14 S1          0.0012    1.4031    0.0263 S.o2      1 <0>         2.7492
     15 O2          1.0761    2.3239   -0.1008 O.2       1 <0>        -0.9111
     16 O3         -0.9459    1.1899   -1.0114 O.2       1 <0>        -0.8832
     17 N2          0.6779   -0.0711    0.3597 N.am      1 <0>        -0.8307
     18 C11        -0.1113   -1.1457    0.5569 C.2       1 <0>         0.3247
     19 O4         -1.3171   -1.0330    0.4902 O.2       1 <0>        -0.3303
     20 C12         0.5044   -2.4872    0.8604 C.3       1 <0>        -0.2426
     21 C13        -3.6236    6.2582    8.5317 C.ar      1 <0>        -0.0772
     22 C14        -4.9970    6.3276    8.6730 C.ar      1 <0>        -0.1264
     23 C15        -5.5515    6.6063    9.9082 C.ar      1 <0>        -0.1257
     24 C16        -4.7325    6.8246   11.0002 C.ar      1 <0>        -0.1292
     25 C17        -3.3590    6.7603   10.8578 C.ar      1 <0>        -0.1253
     26 C18        -2.8046    6.4774    9.6235 C.ar      1 <0>        -0.1215
     27 H2         -3.0090    6.7953    5.2049 H         1 <0>         0.1077
     28 H3         -4.5329    7.0262    6.0951 H         1 <0>         0.0669
     29 H4         -3.1006    7.9954    6.5162 H         1 <0>         0.0822
     30 H5         -4.5806    4.6119    6.5433 H         1 <0>         0.1057
     31 H6         -3.2783    3.8301    7.4714 H         1 <0>         0.1082
     32 H7         -3.7762    2.4676    5.1672 H         1 <0>         0.2363
     33 H8         -0.5331    3.5861    4.3424 H         1 <0>         0.1644
     34 H9          0.7407    2.9024    2.3506 H         1 <0>         0.1498
     35 H10        -2.7248    0.9693    0.7863 H         1 <0>         0.1711
     36 H11        -4.0049    1.6401    2.7785 H         1 <0>         0.1380
     37 H12         1.6422   -0.1612    0.4131 H         1 <0>         0.2526
     38 H13         1.0904   -2.4191    1.7770 H         1 <0>         0.0993
     39 H14        -0.2844   -3.2286    0.9877 H         1 <0>         0.1203
     40 H15         1.1526   -2.7843    0.0360 H         1 <0>         0.1036
     41 H16        -5.6368    6.1607    7.8191 H         1 <0>         0.1282
     42 H17        -6.6246    6.6561   10.0195 H         1 <0>         0.1292
     43 H18        -5.1657    7.0450   11.9646 H         1 <0>         0.1293
     44 H19        -2.7191    6.9309   11.7109 H         1 <0>         0.1301
     45 H20        -1.7315    6.4272    9.5123 H         1 <0>         0.1318
@<TRIPOS>BOND
     1    1    2 1
     2    1   27 1
     3    1   28 1
     4    1   29 1
     5    2    3 1
     6    2    4 1
     7    2   21 1
     8    4    5 1
     9    4   30 1
    10    4   31 1
    11    5    6 2
    12    5    7 am
    13    7    8 1
    14    7   32 1
    15    8   13 ar
    16    8    9 ar
    17    9   10 ar
    18    9   33 1
    19   10   11 ar
    20   10   34 1
    21   11   12 ar
    22   11   14 1
    23   12   13 ar
    24   12   35 1
    25   13   36 1
    26   14   15 2
    27   14   16 2
    28   14   17 1
    29   17   18 am
    30   17   37 1
    31   18   19 2
    32   18   20 1
    33   20   38 1
    34   20   39 1
    35   20   40 1
    36   21   26 ar
    37   21   22 ar
    38   22   23 ar
    39   22   41 1
    40   23   24 ar
    41   23   42 1
    42   24   25 ar
    43   24   43 1
    44   25   26 ar
    45   25   44 1
    46   26   45 1
@<TRIPOS>MOLECULE
ZINC01159067
   44    46     0     0     0
SMALL
USER_CHARGES

@<TRIPOS>ATOM
      1 C1         -1.3319    2.1138    0.0199 C.3       1 <0>        -0.1768
      2 C2         -0.0167    1.3781    0.0096 C.ar      1 <0>        -0.0543
      3 C3          1.1709    2.0855    0.0021 C.ar      1 <0>        -0.1353
      4 C4          2.3773    1.4107   -0.0136 C.ar      1 <0>        -0.0448
      5 C5          2.3960    0.0285   -0.0212 C.ar      1 <0>        -0.0963
      6 C6          1.2084   -0.6789   -0.0136 C.ar      1 <0>        -0.0468
      7 C7          0.0021   -0.0041    0.0020 C.ar      1 <0>        -0.1360
      8 C8          1.2289   -2.1857   -0.0219 C.3       1 <0>        -0.1814
      9 C9          3.7112   -0.7071   -0.0373 C.3       1 <0>        -0.2250
     10 S1          4.2217   -0.9930   -1.7501 S.3       1 <0>         0.2594
     11 C10         5.7411   -1.8429   -1.4787 C.2       1 <0>        -0.1648
     12 N1          6.2744   -2.1415   -0.3135 N.2       1 <0>        -0.1648
     13 N2          7.3863   -2.7633   -0.4728 N.2       1 <0>         0.0039
     14 N3          7.6477   -2.9091   -1.7263 N.2       1 <0>        -0.0351
     15 N4          6.5854   -2.3217   -2.4358 N.pl3     1 <0>        -0.1185
     16 C11         6.4297   -2.2434   -3.8236 C.ar      1 <0>         0.0760
     17 C12         5.1611   -2.3345   -4.3854 C.ar      1 <0>        -0.1435
     18 C13         5.0035   -2.2530   -5.7512 C.ar      1 <0>        -0.0898
     19 C14         6.1215   -2.0898   -6.5731 C.ar      1 <0>        -0.1244
     20 C15         7.3951   -2.0040   -6.0054 C.ar      1 <0>        -0.0549
     21 C16         7.5446   -2.0805   -4.6384 C.ar      1 <0>        -0.1198
     22 C17         5.9573   -2.0086   -8.0383 C.2       1 <0>         0.3482
     23 O1          6.9311   -1.8670   -8.7522 O.2       1 <0>        -0.3609
     24 N5          4.7278   -2.0916   -8.5842 N.am      1 <0>        -0.4262
     25 C18         3.6720    2.1819   -0.0214 C.3       1 <0>        -0.1822
     26 H1         -1.6441    2.2856    1.0500 H         1 <0>         0.0898
     27 H2         -1.2169    3.0707   -0.4893 H         1 <0>         0.0836
     28 H3         -2.0859    1.5173   -0.4937 H         1 <0>         0.0832
     29 H4          1.1563    3.1654    0.0081 H         1 <0>         0.1353
     30 H5         -0.9258   -0.5567    0.0079 H         1 <0>         0.1346
     31 H6          1.2235   -2.5435   -1.0515 H         1 <0>         0.0905
     32 H7          2.1288   -2.5396    0.4811 H         1 <0>         0.0879
     33 H8          0.3491   -2.5639    0.4987 H         1 <0>         0.0858
     34 H9          4.4676   -0.1104    0.4725 H         1 <0>         0.1317
     35 H10         3.5986   -1.6638    0.4728 H         1 <0>         0.1306
     36 H11         4.2978   -2.4651   -3.7497 H         1 <0>         0.1560
     37 H12         4.0175   -2.3197   -6.1866 H         1 <0>         0.1353
     38 H13         8.2615   -1.8782   -6.6378 H         1 <0>         0.1693
     39 H14         8.5289   -2.0143   -4.1989 H         1 <0>         0.1621
     40 H15         3.9508   -2.2046   -8.0147 H         1 <0>         0.2159
     41 H16         4.6199   -2.0383   -9.5468 H         1 <0>         0.2351
     42 H17         3.9747    2.3734   -1.0509 H         1 <0>         0.0939
     43 H18         3.5335    3.1297    0.4988 H         1 <0>         0.0857
     44 H19         4.4443    1.6005    0.4822 H         1 <0>         0.0878
@<TRIPOS>BOND
     1    1    2 1
     2    1   26 1
     3    1   27 1
     4    1   28 1
     5    2    7 ar
     6    2    3 ar
     7    3    4 ar
     8    3   29 1
     9    4    5 ar
    10    4   25 1
    11    5    6 ar
    12    5    9 1
    13    6    7 ar
    14    6    8 1
    15    7   30 1
    16    8   31 1
    17    8   32 1
    18    8   33 1
    19    9   10 1
    20    9   34 1
    21    9   35 1
    22   10   11 1
    23   11   15 1
    24   11   12 2
    25   12   13 1
    26   13   14 2
    27   14   15 1
    28   15   16 1
    29   16   21 ar
    30   16   17 ar
    31   17   18 ar
    32   17   36 1
    33   18   19 ar
    34   18   37 1
    35   19   20 ar
    36   19   22 1
    37   20   21 ar
    38   20   38 1
    39   21   39 1
    40   22   23 2
    41   22   24 am
    42   24   40 1
    43   24   41 1
    44   25   42 1
    45   25   43 1
    46   25   44 1
@<TRIPOS>MOLECULE
ZINC01159464
   40    41     0     0     0
SMALL
USER_CHARGES

@<TRIPOS>ATOM
      1 C1          2.4542    0.9930    0.7851 C.3       1 <0>        -0.1858
      2 C2          1.1551    1.7330    0.5963 C.ar      1 <0>        -0.0046
      3 C3         -0.0391    1.0387    0.5821 C.ar      1 <0>        -0.1580
      4 C4         -1.2343    1.7198    0.4030 C.ar      1 <0>         0.1129
      5 C5         -1.2284    3.0986    0.2498 C.ar      1 <0>        -0.2337
      6 C6         -0.0320    3.7890    0.2637 C.ar      1 <0>        -0.0022
      7 C7          1.1592    3.1072    0.4367 C.ar      1 <0>        -0.2003
      8 Br1         2.7954    4.0551    0.4559 Br        1 <0>         0.0449
      9 C8         -0.0246    5.2860    0.0906 C.3       1 <0>        -0.1867
     10 O1         -2.4098    1.0379    0.3836 O.3       1 <0>        -0.1761
     11 C9         -3.6012    1.8041    0.1950 C.3       1 <0>        -0.0367
     12 C10        -4.7957    0.8852    0.2015 C.2       1 <0>         0.2988
     13 O2         -4.6418   -0.3082    0.3528 O.2       1 <0>        -0.3126
     14 N1         -6.0349    1.3897    0.0392 N.am      1 <0>        -0.3288
     15 C11        -7.1289    0.5315   -0.0651 C.ar      1 <0>         0.0876
     16 C12        -6.9840   -0.7057   -0.6849 C.ar      1 <0>        -0.1385
     17 C13        -8.0609   -1.5574   -0.7852 C.ar      1 <0>        -0.0851
     18 C14        -9.3033   -1.1737   -0.2731 C.ar      1 <0>        -0.1475
     19 C15        -9.4467    0.0718    0.3442 C.ar      1 <0>        -0.0462
     20 C16        -8.3644    0.9166    0.4459 C.ar      1 <0>        -0.1740
     21 C17       -10.4613   -2.0822   -0.3834 C.2       1 <0>         0.3516
     22 O3        -11.5415   -1.7472    0.0630 O.2       1 <0>        -0.3715
     23 N2        -10.3214   -3.2831   -0.9790 N.am      1 <0>        -0.4281
     24 H1          2.8481    0.6965   -0.1870 H         1 <0>         0.0971
     25 H2          3.1727    1.6421    1.2857 H         1 <0>         0.1009
     26 H3          2.2815    0.1051    1.3933 H         1 <0>         0.0880
     27 H4         -0.0418   -0.0342    0.7060 H         1 <0>         0.1553
     28 H5         -2.1582    3.6312    0.1147 H         1 <0>         0.1339
     29 H6          0.0575    5.5289   -0.9688 H         1 <0>         0.0958
     30 H7         -0.9502    5.7024    0.4882 H         1 <0>         0.0817
     31 H8          0.8243    5.7096    0.6273 H         1 <0>         0.1026
     32 H9         -3.6974    2.5308    1.0016 H         1 <0>         0.0971
     33 H10        -3.5498    2.3264   -0.7604 H         1 <0>         0.0975
     34 H11        -6.1657    2.3498   -0.0052 H         1 <0>         0.2334
     35 H12        -6.0246   -0.9999   -1.0841 H         1 <0>         0.1632
     36 H13        -7.9468   -2.5194   -1.2628 H         1 <0>         0.1302
     37 H14       -10.4053    0.3712    0.7413 H         1 <0>         0.1606
     38 H15        -8.4744    1.8792    0.9231 H         1 <0>         0.1356
     39 H16        -9.4596   -3.5504   -1.3351 H         1 <0>         0.2163
     40 H17       -11.0824   -3.8801   -1.0515 H         1 <0>         0.2316
@<TRIPOS>BOND
     1    1    2 1
     2    1   24 1
     3    1   25 1
     4    1   26 1
     5    2    7 ar
     6    2    3 ar
     7    3    4 ar
     8    3   27 1
     9    4    5 ar
    10    4   10 1
    11    5    6 ar
    12    5   28 1
    13    6    7 ar
    14    6    9 1
    15    7    8 1
    16    9   29 1
    17    9   30 1
    18    9   31 1
    19   10   11 1
    20   11   12 1
    21   11   32 1
    22   11   33 1
    23   12   13 2
    24   12   14 am
    25   14   15 1
    26   14   34 1
    27   15   20 ar
    28   15   16 ar
    29   16   17 ar
    30   16   35 1
    31   17   18 ar
    32   17   36 1
    33   18   19 ar
    34   18   21 1
    35   19   20 ar
    36   19   37 1
    37   20   38 1
    38   21   22 2
    39   21   23 am
    40   23   39 1
    41   23   40 1
@<TRIPOS>MOLECULE
ZINC01164451
   40    42     0     0     0
SMALL
USER_CHARGES

@<TRIPOS>ATOM
      1 C1         -5.3955    2.4184   -1.4321 C.3       1 <0>        -0.2344
      2 C2         -4.8798    2.4092    0.0084 C.3       1 <0>        -0.0077
      3 N1         -3.4149    2.4282    0.0027 N.am      1 <0>        -0.3192
      4 C3         -2.6398    1.3290   -0.0129 C.2       1 <0>         0.3559
      5 O1         -3.0370    0.1816   -0.0241 O.2       1 <0>        -0.2958
      6 C4         -1.2215    1.7528   -0.0196 C.ar      1 <0>        -0.1102
      7 C5         -0.0124    1.0754   -0.0259 C.ar      1 <0>        -0.0707
      8 C6          1.1763    1.7849   -0.0224 C.ar      1 <0>        -0.0935
      9 C7          1.1634    3.1796   -0.0072 C.ar      1 <0>        -0.1151
     10 C8         -0.0518    3.8705    0.0051 C.ar      1 <0>        -0.0036
     11 C9         -1.2412    3.1625    0.0016 C.ar      1 <0>        -0.1415
     12 C10        -2.6686    3.5471    0.0120 C.2       1 <0>         0.3588
     13 O2         -3.0960    4.6838    0.0270 O.2       1 <0>        -0.2914
     14 C11         2.4390    3.9296   -0.0035 C.2       1 <0>         0.3445
     15 O3          2.4294    5.1450    0.0097 O.2       1 <0>        -0.3440
     16 N2          3.6115    3.2651   -0.0149 N.am      1 <0>        -0.3146
     17 C12         4.8153    3.9711   -0.1283 C.ar      1 <0>         0.0509
     18 C13         4.8323    5.2235   -0.7285 C.ar      1 <0>        -0.1179
     19 C14         6.0196    5.9193   -0.8395 C.ar      1 <0>        -0.1383
     20 C15         7.1956    5.3677   -0.3517 C.ar      1 <0>         0.0574
     21 C16         7.1793    4.1171    0.2483 C.ar      1 <0>        -0.1359
     22 C17         5.9916    3.4220    0.3644 C.ar      1 <0>        -0.0980
     23 C18         5.9732    2.0657    1.0209 C.3       1 <0>        -0.1753
     24 O4          8.3645    6.0535   -0.4613 O.3       1 <0>        -0.2912
     25 H1         -5.0458    3.3186   -1.9374 H         1 <0>         0.0889
     26 H2         -5.0228    1.5389   -1.9571 H         1 <0>         0.0877
     27 H3         -6.4854    2.4042   -1.4279 H         1 <0>         0.0893
     28 H4         -5.2295    1.5090    0.5137 H         1 <0>         0.1109
     29 H5         -5.2526    3.2887    0.5334 H         1 <0>         0.1121
     30 H6          0.0025   -0.0045   -0.0381 H         1 <0>         0.1549
     31 H7          2.1180    1.2562   -0.0311 H         1 <0>         0.1359
     32 H8         -0.0625    4.9504    0.0169 H         1 <0>         0.1775
     33 H9          3.6214    2.2977    0.0555 H         1 <0>         0.2351
     34 H10         3.9170    5.6532   -1.1079 H         1 <0>         0.1742
     35 H11         6.0330    6.8933   -1.3058 H         1 <0>         0.1454
     36 H12         8.0950    3.6886    0.6280 H         1 <0>         0.1426
     37 H13         6.1433    1.2955    0.2685 H         1 <0>         0.0847
     38 H14         6.7585    2.0164    1.7752 H         1 <0>         0.0913
     39 H15         5.0045    1.9040    1.4938 H         1 <0>         0.0742
     40 H16         8.5545    6.6299    0.2915 H         1 <0>         0.2262
@<TRIPOS>BOND
     1    1    2 1
     2    1   25 1
     3    1   26 1
     4    1   27 1
     5    2    3 1
     6    2   28 1
     7    2   29 1
     8    3   12 am
     9    3    4 am
    10    4    5 2
    11    4    6 1
    12    6   11 ar
    13    6    7 ar
    14    7    8 ar
    15    7   30 1
    16    8    9 ar
    17    8   31 1
    18    9   10 ar
    19    9   14 1
    20   10   11 ar
    21   10   32 1
    22   11   12 1
    23   12   13 2
    24   14   15 2
    25   14   16 am
    26   16   17 1
    27   16   33 1
    28   17   22 ar
    29   17   18 ar
    30   18   19 ar
    31   18   34 1
    32   19   20 ar
    33   19   35 1
    34   20   21 ar
    35   20   24 1
    36   21   22 ar
    37   21   36 1
    38   22   23 1
    39   23   37 1
    40   23   38 1
    41   23   39 1
    42   24   40 1
@<TRIPOS>MOLECULE
ZINC01170602
   41    43     0     0     0
SMALL
USER_CHARGES

@<TRIPOS>ATOM
      1 C1          3.8367   -0.2384   -2.8988 C.3       1 <0>        -0.0652
      2 O1          2.6409   -0.2609   -3.6809 O.3       1 <0>        -0.2055
      3 C2          1.5811    0.4414   -3.2066 C.ar      1 <0>         0.1303
      4 C3          0.3877    0.4611   -3.9192 C.ar      1 <0>        -0.1764
      5 C4         -0.6900    1.1724   -3.4414 C.ar      1 <0>        -0.0261
      6 C5         -0.5828    1.8755   -2.2379 C.ar      1 <0>        -0.1592
      7 C6          0.6192    1.8530   -1.5245 C.ar      1 <0>        -0.0372
      8 C7          1.6918    1.1388   -2.0091 C.ar      1 <0>        -0.2412
      9 C8         -1.7325    2.6436   -1.7255 C.2       1 <0>         0.3492
     10 O2         -2.7749    2.6660   -2.3496 O.2       1 <0>        -0.3389
     11 O3         -1.6272    3.3207   -0.5651 O.3       1 <0>        -0.2091
     12 C9         -2.6869    4.0901   -0.2012 C.ar      1 <0>         0.0486
     13 C10        -3.8234    3.4970    0.3352 C.ar      1 <0>        -0.0910
     14 C11        -4.9067    4.2724    0.7083 C.ar      1 <0>        -0.1280
     15 C12        -4.8680    5.6415    0.5515 C.ar      1 <0>        -0.0343
     16 C13        -3.7274    6.2510    0.0117 C.ar      1 <0>        -0.1029
     17 C14        -2.6306    5.4629   -0.3601 C.ar      1 <0>        -0.0876
     18 C15        -3.6800    7.7066   -0.1576 C.2       1 <0>         0.0979
     19 C16        -4.7640    8.3748   -0.6868 C.2       1 <0>        -0.2809
     20 C17        -5.8959    7.6478   -1.2979 C.2       1 <0>         0.3457
     21 O4         -5.9024    6.4328   -1.3517 O.2       1 <0>        -0.3134
     22 N1         -6.9243    8.3691   -1.7898 N.am      1 <0>        -0.3411
     23 C18        -6.9273    9.7085   -1.7428 C.2       1 <0>         0.4063
     24 O5         -7.8825   10.2974   -2.2095 O.2       1 <0>        -0.3651
     25 N2         -5.9346   10.4340   -1.2097 N.am      1 <0>        -0.3410
     26 C19        -4.8429    9.8503   -0.6736 C.2       1 <0>         0.3524
     27 O6         -3.9488   10.5198   -0.1925 O.2       1 <0>        -0.3267
     28 H1          4.1868    0.7891   -2.7999 H         1 <0>         0.0714
     29 H2          3.6319   -0.6492   -1.9102 H         1 <0>         0.0714
     30 H3          4.6033   -0.8378   -3.3897 H         1 <0>         0.1128
     31 H4          0.3059   -0.0821   -4.8490 H         1 <0>         0.1526
     32 H5         -1.6169    1.1868   -3.9955 H         1 <0>         0.1610
     33 H6          0.7062    2.3952   -0.5945 H         1 <0>         0.1486
     34 H7          2.6206    1.1204   -1.4582 H         1 <0>         0.1413
     35 H8         -3.8614    2.4250    0.4611 H         1 <0>         0.1448
     36 H9         -5.7861    3.8034    1.1244 H         1 <0>         0.1413
     37 H10        -5.7156    6.2435    0.8439 H         1 <0>         0.1370
     38 H11        -1.7460    5.9250   -0.7728 H         1 <0>         0.1434
     39 H12        -2.7961    8.2554    0.1321 H         1 <0>         0.1662
     40 H13        -7.6775    7.9077   -2.1906 H         1 <0>         0.2743
     41 H14        -6.0027   11.4016   -1.2091 H         1 <0>         0.2744
@<TRIPOS>BOND
     1    1    2 1
     2    1   28 1
     3    1   29 1
     4    1   30 1
     5    2    3 1
     6    3    8 ar
     7    3    4 ar
     8    4    5 ar
     9    4   31 1
    10    5    6 ar
    11    5   32 1
    12    6    7 ar
    13    6    9 1
    14    7    8 ar
    15    7   33 1
    16    8   34 1
    17    9   10 2
    18    9   11 1
    19   11   12 1
    20   12   17 ar
    21   12   13 ar
    22   13   14 ar
    23   13   35 1
    24   14   15 ar
    25   14   36 1
    26   15   16 ar
    27   15   37 1
    28   16   17 ar
    29   16   18 1
    30   17   38 1
    31   18   19 2
    32   18   39 1
    33   19   26 1
    34   19   20 1
    35   20   21 2
    36   20   22 am
    37   22   23 am
    38   22   40 1
    39   23   24 2
    40   23   25 am
    41   25   26 am
    42   25   41 1
    43   26   27 2
@<TRIPOS>MOLECULE
ZINC01175432
   42    44     0     0     0
SMALL
USER_CHARGES

@<TRIPOS>ATOM
      1 C1          1.3261    1.3807   -3.5086 C.3       1 <0>        -0.2107
      2 C2          0.9702    2.5603   -2.6016 C.3       1 <0>        -0.0184
      3 O1          1.9660    2.6976   -1.5860 O.3       1 <0>        -0.2010
      4 C3          1.7988    3.7066   -0.6897 C.ar      1 <0>         0.0616
      5 C4          0.7047    4.5408   -0.7873 C.ar      1 <0>        -0.1727
      6 C5          0.5358    5.5808    0.1395 C.ar      1 <0>        -0.0849
      7 C6          1.4815    5.7651    1.1596 C.ar      1 <0>        -0.0595
      8 C7          2.5690    4.9271    1.2475 C.ar      1 <0>        -0.1317
      9 C8          2.7315    3.8939    0.3318 C.ar      1 <0>         0.0761
     10 O2          3.8036    3.0674    0.4282 O.3       1 <0>        -0.2776
     11 C9         -0.6216    6.4698    0.0423 C.2       1 <0>         0.0976
     12 C10        -0.4538    7.8371    0.1523 C.2       1 <0>        -0.2779
     13 C11         0.8884    8.4521    0.1468 C.2       1 <0>         0.3476
     14 O3          1.8890    7.7680    0.0447 O.2       1 <0>        -0.3215
     15 N1          0.9745    9.7938    0.2577 N.am      1 <0>        -0.3396
     16 C12        -0.1197   10.5596    0.3701 C.2       1 <0>         0.4078
     17 O4          0.0278   11.7621    0.4665 O.2       1 <0>        -0.3517
     18 N2         -1.3677   10.0710    0.3823 N.am      1 <0>        -0.2594
     19 C13        -1.6087    8.7481    0.2744 C.2       1 <0>         0.3555
     20 O5         -2.7464    8.3175    0.2814 O.2       1 <0>        -0.3134
     21 C14        -2.4485   10.9563    0.5042 C.ar      1 <0>         0.0173
     22 C15        -3.0360   11.4971   -0.6309 C.ar      1 <0>        -0.0744
     23 C16        -4.1005   12.3689   -0.5080 C.ar      1 <0>        -0.1392
     24 C17        -4.5818   12.7039    0.7443 C.ar      1 <0>        -0.0876
     25 C18        -4.0000   12.1678    1.8781 C.ar      1 <0>        -0.1631
     26 C19        -2.9374   11.2897    1.7621 C.ar      1 <0>         0.1283
     27 F1         -2.3725   10.7611    2.8696 F         1 <0>        -0.0969
     28 H1          0.5665    1.2759   -4.2833 H         1 <0>         0.0867
     29 H2          2.2961    1.5589   -3.9727 H         1 <0>         0.0887
     30 H3          1.3692    0.4668   -2.9161 H         1 <0>         0.0917
     31 H4          0.9271    3.4741   -3.1941 H         1 <0>         0.0721
     32 H5          0.0001    2.3820   -2.1375 H         1 <0>         0.0738
     33 H6         -0.0196    4.3942   -1.5749 H         1 <0>         0.1407
     34 H7          1.3560    6.5644    1.8750 H         1 <0>         0.1397
     35 H8          3.2962    5.0694    2.0332 H         1 <0>         0.1501
     36 H9          4.5781    3.3684   -0.0664 H         1 <0>         0.2312
     37 H10        -1.6073    6.0577   -0.1156 H         1 <0>         0.1656
     38 H11         1.8487   10.2141    0.2559 H         1 <0>         0.2736
     39 H12        -2.6610   11.2368   -1.6097 H         1 <0>         0.1446
     40 H13        -4.5577   12.7894   -1.3915 H         1 <0>         0.1403
     41 H14        -5.4144   13.3855    0.8369 H         1 <0>         0.1398
     42 H15        -4.3784   12.4310    2.8548 H         1 <0>         0.1511
@<TRIPOS>BOND
     1    1    2 1
     2    1   28 1
     3    1   29 1
     4    1   30 1
     5    2    3 1
     6    2   31 1
     7    2   32 1
     8    3    4 1
     9    4    9 ar
    10    4    5 ar
    11    5    6 ar
    12    5   33 1
    13    6    7 ar
    14    6   11 1
    15    7    8 ar
    16    7   34 1
    17    8    9 ar
    18    8   35 1
    19    9   10 1
    20   10   36 1
    21   11   12 2
    22   11   37 1
    23   12   19 1
    24   12   13 1
    25   13   14 2
    26   13   15 am
    27   15   16 am
    28   15   38 1
    29   16   17 2
    30   16   18 am
    31   18   19 am
    32   18   21 1
    33   19   20 2
    34   21   26 ar
    35   21   22 ar
    36   22   23 ar
    37   22   39 1
    38   23   24 ar
    39   23   40 1
    40   24   25 ar
    41   24   41 1
    42   25   26 ar
    43   25   42 1
    44   26   27 1
@<TRIPOS>MOLECULE
ZINC01177047
   46    48     0     0     0
SMALL
USER_CHARGES

@<TRIPOS>ATOM
      1 C1         14.0498    5.3556    0.3081 C.3       1 <0>        -0.1979
      2 C2         13.4080    4.6181   -0.8689 C.3       1 <0>        -0.0275
      3 C3         13.8756    3.1613   -0.8739 C.3       1 <0>        -0.2037
      4 C4         13.8217    5.2911   -2.1792 C.3       1 <0>        -0.1980
      5 C5         11.9079    4.6637   -0.7325 C.ar      1 <0>        -0.0961
      6 C6         11.2542    5.8817   -0.7042 C.ar      1 <0>        -0.0875
      7 C7          9.8791    5.9262   -0.5793 C.ar      1 <0>        -0.1463
      8 C8          9.1541    4.7474   -0.4822 C.ar      1 <0>         0.0862
      9 C9          9.8129    3.5267   -0.5051 C.ar      1 <0>        -0.2230
     10 C10        11.1876    3.4874   -0.6364 C.ar      1 <0>        -0.0904
     11 O1          7.8013    4.7885   -0.3593 O.3       1 <0>        -0.1804
     12 C11         7.1201    3.5359   -0.2643 C.3       1 <0>        -0.0327
     13 C12         5.6384    3.7783   -0.1348 C.2       1 <0>         0.3008
     14 O2          5.2081    4.9122   -0.1248 O.2       1 <0>        -0.3139
     15 N1          4.7915    2.7352   -0.0300 N.am      1 <0>        -0.3294
     16 C13         3.4145    2.9547   -0.0060 C.ar      1 <0>         0.0781
     17 C14         2.9053    4.0865    0.6191 C.ar      1 <0>        -0.1169
     18 C15         1.5419    4.3153    0.6497 C.ar      1 <0>        -0.0401
     19 C16         0.6764    3.4100    0.0518 C.ar      1 <0>        -0.1531
     20 C17         1.1899    2.2597   -0.5838 C.ar      1 <0>        -0.1178
     21 C18         2.5548    2.0377   -0.6097 C.ar      1 <0>        -0.0948
     22 C19         0.0153    1.5274   -1.1037 C.2       1 <0>         0.3597
     23 O3          0.0470    0.4794   -1.7167 O.2       1 <0>        -0.3010
     24 N2         -1.0940    2.2202   -0.7886 N.am      1 <0>        -0.3553
     25 C20        -0.7892    3.3369   -0.1036 C.2       1 <0>         0.3591
     26 O4         -1.5874    4.1522    0.3135 O.2       1 <0>        -0.2982
     27 H1         13.7550    4.8762    1.2415 H         1 <0>         0.0787
     28 H2         15.1348    5.3227    0.2094 H         1 <0>         0.0755
     29 H3         13.7166    6.3935    0.3117 H         1 <0>         0.0753
     30 H4         13.4185    2.6359   -1.7124 H         1 <0>         0.0763
     31 H5         14.9607    3.1284   -0.9725 H         1 <0>         0.0770
     32 H6         13.5809    2.6819    0.0596 H         1 <0>         0.0760
     33 H7         13.4886    6.3289   -2.1756 H         1 <0>         0.0754
     34 H8         14.9067    5.2581   -2.2778 H         1 <0>         0.0754
     35 H9         13.3645    4.7656   -3.0176 H         1 <0>         0.0790
     36 H10        11.8190    6.7991   -0.7794 H         1 <0>         0.1385
     37 H11         9.3689    6.8778   -0.5575 H         1 <0>         0.1485
     38 H12         9.2512    2.6077   -0.4251 H         1 <0>         0.1260
     39 H13        11.7004    2.5372   -0.6594 H         1 <0>         0.1381
     40 H14         7.4774    2.9935    0.6111 H         1 <0>         0.0957
     41 H15         7.3150    2.9474   -1.1609 H         1 <0>         0.0985
     42 H16         5.1397    1.8317    0.0286 H         1 <0>         0.2366
     43 H17         3.5784    4.7915    1.0842 H         1 <0>         0.1787
     44 H18         1.1516    5.1963    1.1375 H         1 <0>         0.1569
     45 H19         2.9527    1.1588   -1.0953 H         1 <0>         0.1499
     46 H20        -1.9953    1.9489   -1.0229 H         1 <0>         0.2642
@<TRIPOS>BOND
     1    1    2 1
     2    1   27 1
     3    1   28 1
     4    1   29 1
     5    2    3 1
     6    2    4 1
     7    2    5 1
     8    3   30 1
     9    3   31 1
    10    3   32 1
    11    4   33 1
    12    4   34 1
    13    4   35 1
    14    5   10 ar
    15    5    6 ar
    16    6    7 ar
    17    6   36 1
    18    7    8 ar
    19    7   37 1
    20    8    9 ar
    21    8   11 1
    22    9   10 ar
    23    9   38 1
    24   10   39 1
    25   11   12 1
    26   12   13 1
    27   12   40 1
    28   12   41 1
    29   13   14 2
    30   13   15 am
    31   15   16 1
    32   15   42 1
    33   16   21 ar
    34   16   17 ar
    35   17   18 ar
    36   17   43 1
    37   18   19 ar
    38   18   44 1
    39   19   25 1
    40   19   20 ar
    41   20   21 ar
    42   20   22 1
    43   21   45 1
    44   22   23 2
    45   22   24 am
    46   24   25 am
    47   24   46 1
    48   25   26 2
@<TRIPOS>MOLECULE
ZINC01177943
   40    42     0     0     0
SMALL
USER_CHARGES

@<TRIPOS>ATOM
      1 C1          4.1653    0.5923   -1.8691 C.3       1 <0>        -0.1816
      2 C2          2.9089    1.2584   -1.3703 C.ar      1 <0>        -0.0373
      3 C3          2.7149    1.4330   -0.0115 C.ar      1 <0>        -0.1449
      4 C4          1.5671    2.0418    0.4520 C.ar      1 <0>        -0.0568
      5 C5          0.5999    2.4823   -0.4538 C.ar      1 <0>        -0.1260
      6 C6          0.8022    2.3029   -1.8237 C.ar      1 <0>        -0.0722
      7 C7          1.9548    1.6929   -2.2734 C.ar      1 <0>        -0.1459
      8 C8         -0.6344    3.1297    0.0354 C.2       1 <0>         0.3465
      9 O1         -0.8098    3.2798    1.2280 O.2       1 <0>        -0.3405
     10 O2         -1.5658    3.5537   -0.8414 O.3       1 <0>        -0.2092
     11 C9         -2.7191    4.0461   -0.3245 C.ar      1 <0>         0.1019
     12 C10        -3.8286    3.2263   -0.1906 C.ar      1 <0>        -0.1408
     13 C11        -5.0008    3.7273    0.3413 C.ar      1 <0>        -0.0856
     14 C12        -5.0844    5.0543    0.7352 C.ar      1 <0>        -0.1364
     15 C13        -3.9972    5.8881    0.6062 C.ar      1 <0>        -0.0265
     16 C14        -2.7975    5.3937    0.0734 C.ar      1 <0>        -0.1083
     17 C15        -1.6366    6.2721   -0.0671 C.2       1 <0>         0.1089
     18 C16        -1.7856    7.5315   -0.6152 C.2       1 <0>        -0.2848
     19 C17        -3.0510    7.9517   -1.2493 C.2       1 <0>         0.3486
     20 O3         -4.0024    7.1960   -1.3069 O.2       1 <0>        -0.3227
     21 N1         -3.1248    9.1990   -1.7580 N.am      1 <0>        -0.3415
     22 C18        -2.0825   10.0400   -1.7062 C.2       1 <0>         0.4066
     23 O4         -2.2138   11.1481   -2.1880 O.2       1 <0>        -0.3667
     24 N2         -0.9033    9.7253   -1.1525 N.am      1 <0>        -0.3414
     25 C19        -0.6845    8.5150   -0.5983 C.2       1 <0>         0.3525
     26 O5          0.3900    8.2417   -0.0981 O.2       1 <0>        -0.3241
     27 H1          4.0035   -0.4834   -1.9381 H         1 <0>         0.0926
     28 H2          4.4188    0.9856   -2.8536 H         1 <0>         0.0867
     29 H3          4.9826    0.7931   -1.1763 H         1 <0>         0.0871
     30 H4          3.4636    1.0914    0.6879 H         1 <0>         0.1401
     31 H5          1.4171    2.1778    1.5128 H         1 <0>         0.1558
     32 H6          0.0581    2.6413   -2.5296 H         1 <0>         0.1485
     33 H7          2.1127    1.5538   -3.3327 H         1 <0>         0.1382
     34 H8         -3.7752    2.1926   -0.4988 H         1 <0>         0.1450
     35 H9         -5.8602    3.0818    0.4467 H         1 <0>         0.1370
     36 H10        -6.0079    5.4356    1.1452 H         1 <0>         0.1383
     37 H11        -4.0674    6.9207    0.9148 H         1 <0>         0.1396
     38 H12        -0.6628    5.9362    0.2575 H         1 <0>         0.1720
     39 H13        -3.9501    9.4926   -2.1746 H         1 <0>         0.2730
     40 H14        -0.1906   10.3833   -1.1499 H         1 <0>         0.2741
@<TRIPOS>BOND
     1    1    2 1
     2    1   27 1
     3    1   28 1
     4    1   29 1
     5    2    7 ar
     6    2    3 ar
     7    3    4 ar
     8    3   30 1
     9    4    5 ar
    10    4   31 1
    11    5    6 ar
    12    5    8 1
    13    6    7 ar
    14    6   32 1
    15    7   33 1
    16    8    9 2
    17    8   10 1
    18   10   11 1
    19   11   16 ar
    20   11   12 ar
    21   12   13 ar
    22   12   34 1
    23   13   14 ar
    24   13   35 1
    25   14   15 ar
    26   14   36 1
    27   15   16 ar
    28   15   37 1
    29   16   17 1
    30   17   18 2
    31   17   38 1
    32   18   25 1
    33   18   19 1
    34   19   20 2
    35   19   21 am
    36   21   22 am
    37   21   39 1
    38   22   23 2
    39   22   24 am
    40   24   25 am
    41   24   40 1
    42   25   26 2
@<TRIPOS>MOLECULE
ZINC01178204
   45    48     0     0     0
SMALL
USER_CHARGES

@<TRIPOS>ATOM
      1 C1          0.1650    0.0001    0.6252 C.ar      1 <0>        -0.1202
      2 C2          1.2039   -0.6827    0.0196 C.ar      1 <0>        -0.1290
      3 C3          2.2308    0.0132   -0.5905 C.ar      1 <0>        -0.1365
      4 C4          2.2213    1.3986   -0.5966 C.ar      1 <0>         0.0367
      5 C5          1.1748    2.0873    0.0130 C.ar      1 <0>         0.0354
      6 C6          0.1476    1.3819    0.6233 C.ar      1 <0>        -0.1145
      7 N1          1.1593    3.4875    0.0093 N.am      1 <0>        -0.3167
      8 C7         -0.0121    4.1482   -0.0782 C.2       1 <0>         0.3443
      9 O1         -1.0596    3.5316   -0.0717 O.2       1 <0>        -0.3476
     10 C8         -0.0230    5.6243   -0.1821 C.ar      1 <0>        -0.1155
     11 C9          1.1799    6.3302   -0.1895 C.ar      1 <0>        -0.0949
     12 C10         1.1789    7.7111   -0.2864 C.ar      1 <0>        -0.0714
     13 C11        -0.0223    8.3966   -0.3766 C.ar      1 <0>        -0.1107
     14 C12        -1.2418    7.6888   -0.3697 C.ar      1 <0>        -0.1367
     15 C13        -1.2388    6.3076   -0.2785 C.ar      1 <0>        -0.0051
     16 C14        -2.3038    8.7113   -0.4792 C.2       1 <0>         0.3626
     17 O2         -3.4981    8.4924   -0.5059 O.2       1 <0>        -0.2754
     18 N2         -1.7268    9.9245   -0.5443 N.am      1 <0>        -0.3134
     19 C15        -0.3863    9.8270   -0.4902 C.2       1 <0>         0.3569
     20 O3          0.3943   10.7563   -0.5278 O.2       1 <0>        -0.3049
     21 C16        -2.4618   11.1866   -0.6584 C.3       1 <0>        -0.0021
     22 C17        -2.7676   11.7269    0.7400 C.3       1 <0>         0.0033
     23 H1         -1.8414   11.9129    1.2839 H         1 <0>         0.1010
     24 C18        -3.6069   13.0257    0.6431 C.3       1 <0>        -0.1900
     25 C19        -4.3184   13.0206    2.0236 C.3       1 <0>        -0.1955
     26 C20        -4.5323   11.5128    2.2764 C.3       1 <0>        -0.0201
     27 O4         -3.5929   10.8000    1.4632 O.3       1 <0>        -0.2659
     28 O5          3.2305    2.0845   -1.1967 O.3       1 <0>        -0.2962
     29 H2         -0.6351   -0.5480    1.1006 H         1 <0>         0.1373
     30 H3          1.2128   -1.7627    0.0230 H         1 <0>         0.1338
     31 H4          3.0404   -0.5232   -1.0629 H         1 <0>         0.1420
     32 H5         -0.6674    1.9125    1.0929 H         1 <0>         0.1697
     33 H6          1.9917    3.9818    0.0696 H         1 <0>         0.2422
     34 H7          2.1165    5.7970   -0.1188 H         1 <0>         0.1387
     35 H8          2.1128    8.2535   -0.2920 H         1 <0>         0.1541
     36 H9         -2.1704    5.7613   -0.2773 H         1 <0>         0.1771
     37 H10        -1.8571   11.9113   -1.2037 H         1 <0>         0.1163
     38 H11        -3.3956   11.0162   -1.1942 H         1 <0>         0.1208
     39 H12        -2.9659   13.9006    0.5348 H         1 <0>         0.0982
     40 H13        -4.3291   12.9669   -0.1712 H         1 <0>         0.0987
     41 H14        -5.2729   13.5442    1.9700 H         1 <0>         0.0968
     42 H15        -3.6815   13.4565    2.7933 H         1 <0>         0.0943
     43 H16        -5.5486   11.2320    1.9998 H         1 <0>         0.0899
     44 H17        -4.3579   11.2857    3.3281 H         1 <0>         0.0852
     45 H18         3.0741    2.2765   -2.1315 H         1 <0>         0.2272
@<TRIPOS>BOND
     1    1    6 ar
     2    1    2 ar
     3    1   29 1
     4    2    3 ar
     5    2   30 1
     6    3    4 ar
     7    3   31 1
     8    4    5 ar
     9    4   28 1
    10    5    6 ar
    11    5    7 1
    12    6   32 1
    13    7    8 am
    14    7   33 1
    15    8    9 2
    16    8   10 1
    17   10   15 ar
    18   10   11 ar
    19   11   12 ar
    20   11   34 1
    21   12   13 ar
    22   12   35 1
    23   13   19 1
    24   13   14 ar
    25   14   15 ar
    26   14   16 1
    27   15   36 1
    28   16   17 2
    29   16   18 am
    30   18   19 am
    31   18   21 1
    32   19   20 2
    33   21   22 1
    34   21   37 1
    35   21   38 1
    36   22   23 1
    37   22   27 1
    38   22   24 1
    39   24   25 1
    40   24   39 1
    41   24   40 1
    42   25   26 1
    43   25   41 1
    44   25   42 1
    45   26   27 1
    46   26   43 1
    47   26   44 1
    48   28   45 1
@<TRIPOS>MOLECULE
ZINC01178205
   45    48     0     0     0
SMALL
USER_CHARGES

@<TRIPOS>ATOM
      1 C1          0.1650    0.0001    0.6252 C.ar      1 <0>        -0.1203
      2 C2          1.2039   -0.6827    0.0196 C.ar      1 <0>        -0.1290
      3 C3          2.2308    0.0132   -0.5905 C.ar      1 <0>        -0.1364
      4 C4          2.2213    1.3986   -0.5966 C.ar      1 <0>         0.0368
      5 C5          1.1748    2.0873    0.0130 C.ar      1 <0>         0.0354
      6 C6          0.1476    1.3819    0.6233 C.ar      1 <0>        -0.1145
      7 N1          1.1593    3.4875    0.0093 N.am      1 <0>        -0.3165
      8 C7         -0.0121    4.1482   -0.0782 C.2       1 <0>         0.3447
      9 O1         -1.0596    3.5316   -0.0717 O.2       1 <0>        -0.3486
     10 C8         -0.0230    5.6243   -0.1821 C.ar      1 <0>        -0.1180
     11 C9          1.1799    6.3302   -0.1895 C.ar      1 <0>        -0.0922
     12 C10         1.1789    7.7111   -0.2868 C.ar      1 <0>        -0.0723
     13 C11        -0.0223    8.3965   -0.3775 C.ar      1 <0>        -0.1047
     14 C12        -1.2417    7.6887   -0.3706 C.ar      1 <0>        -0.1432
     15 C13        -1.2388    6.3076   -0.2786 C.ar      1 <0>        -0.0039
     16 C14        -2.3038    8.7113   -0.4797 C.2       1 <0>         0.3599
     17 O2         -3.4981    8.4924   -0.5057 O.2       1 <0>        -0.3009
     18 N2         -1.7268    9.9245   -0.5446 N.am      1 <0>        -0.3133
     19 C15        -0.3863    9.8269   -0.4907 C.2       1 <0>         0.3592
     20 O3          0.3943   10.7563   -0.5286 O.2       1 <0>        -0.2810
     21 C16        -2.4618   11.1867   -0.6581 C.3       1 <0>        -0.0154
     22 C17        -2.7672   11.7265    0.7406 C.3       1 <0>         0.0036
     23 H1         -3.2865   10.9669    1.3248 H         1 <0>         0.1117
     24 C18        -3.6403   12.9951    0.6332 C.3       1 <0>        -0.1891
     25 C19        -3.0465   13.8992    1.7477 C.3       1 <0>        -0.1969
     26 C20        -1.5503   13.5021    1.6825 C.3       1 <0>        -0.0212
     27 O4         -1.5480   12.0944    1.3963 O.3       1 <0>        -0.2646
     28 O5          3.2305    2.0845   -1.1967 O.3       1 <0>        -0.2961
     29 H2         -0.6351   -0.5480    1.1006 H         1 <0>         0.1372
     30 H3          1.2128   -1.7627    0.0230 H         1 <0>         0.1338
     31 H4          3.0404   -0.5232   -1.0629 H         1 <0>         0.1421
     32 H5         -0.6674    1.9125    1.0929 H         1 <0>         0.1695
     33 H6          1.9917    3.9818    0.0696 H         1 <0>         0.2423
     34 H7          2.1165    5.7970   -0.1192 H         1 <0>         0.1388
     35 H8          2.1128    8.2535   -0.2925 H         1 <0>         0.1554
     36 H9         -2.1704    5.7613   -0.2771 H         1 <0>         0.1760
     37 H10        -1.8573   11.9115   -1.2033 H         1 <0>         0.1180
     38 H11        -3.3958   11.0163   -1.1937 H         1 <0>         0.1156
     39 H12        -3.5281   13.4616   -0.3455 H         1 <0>         0.0932
     40 H13        -4.6861   12.7647    0.8368 H         1 <0>         0.1008
     41 H14        -3.4753   13.6570    2.7201 H         1 <0>         0.0991
     42 H15        -3.1834   14.9548    1.5126 H         1 <0>         0.0964
     43 H16        -1.0658   13.6943    2.6398 H         1 <0>         0.1018
     44 H17        -1.0459   14.0507    0.8871 H         1 <0>         0.0797
     45 H18         3.0741    2.2765   -2.1315 H         1 <0>         0.2272
@<TRIPOS>BOND
     1    1    6 ar
     2    1    2 ar
     3    1   29 1
     4    2    3 ar
     5    2   30 1
     6    3    4 ar
     7    3   31 1
     8    4    5 ar
     9    4   28 1
    10    5    6 ar
    11    5    7 1
    12    6   32 1
    13    7    8 am
    14    7   33 1
    15    8    9 2
    16    8   10 1
    17   10   15 ar
    18   10   11 ar
    19   11   12 ar
    20   11   34 1
    21   12   13 ar
    22   12   35 1
    23   13   19 1
    24   13   14 ar
    25   14   15 ar
    26   14   16 1
    27   15   36 1
    28   16   17 2
    29   16   18 am
    30   18   19 am
    31   18   21 1
    32   19   20 2
    33   21   22 1
    34   21   37 1
    35   21   38 1
    36   22   23 1
    37   22   27 1
    38   22   24 1
    39   24   25 1
    40   24   39 1
    41   24   40 1
    42   25   26 1
    43   25   41 1
    44   25   42 1
    45   26   27 1
    46   26   43 1
    47   26   44 1
    48   28   45 1
@<TRIPOS>MOLECULE
ZINC01188054
   42    44     0     0     0
SMALL
USER_CHARGES

@<TRIPOS>ATOM
      1 C1          3.0221   -1.2502   -2.5713 C.3       1 <0>        -0.0722
      2 O1          3.2912   -0.1843   -1.6583 O.3       1 <0>        -0.1840
      3 C2          2.2532    0.2522   -0.8957 C.ar      1 <0>         0.1090
      4 C3          1.0099   -0.3314   -1.0246 C.ar      1 <0>        -0.1304
      5 C4         -0.0581    0.1217   -0.2361 C.ar      1 <0>        -0.0349
      6 C5          0.1453    1.1657    0.6784 C.ar      1 <0>        -0.0873
      7 C6          1.3896    1.7407    0.7989 C.ar      1 <0>        -0.1517
      8 C7          2.4467    1.2901    0.0171 C.ar      1 <0>         0.0881
      9 O2          3.6715    1.8617    0.1415 O.3       1 <0>        -0.1842
     10 C8          3.8003    2.9188    1.0944 C.3       1 <0>        -0.0707
     11 N1         -0.9791    1.6524    1.5089 N.pl3     1 <0>         0.5513
     12 O3         -0.8320    2.6297    2.2207 O.2       1 <0>        -0.3505
     13 O4         -2.0515    1.0756    1.4804 O.3       1 <0>        -0.3618
     14 C9         -1.3800   -0.4929   -0.3669 C.2       1 <0>         0.0834
     15 C10        -1.4955   -1.8625   -0.4804 C.2       1 <0>        -0.2726
     16 C11        -0.4251   -2.8686   -0.3378 C.2       1 <0>         0.3523
     17 O5          0.7467   -2.6508   -0.0944 O.2       1 <0>        -0.3460
     18 N2         -0.9943   -4.0739   -0.5287 N.am      1 <0>        -0.2778
     19 N3         -2.3582   -3.9373   -0.7862 N.am      1 <0>        -0.1725
     20 C12        -2.7171   -2.6397   -0.7644 C.2       1 <0>         0.3638
     21 O6         -3.8340   -2.1935   -0.9471 O.2       1 <0>        -0.3179
     22 C13        -3.2331   -5.0012   -1.0275 C.ar      1 <0>         0.0807
     23 C14        -4.5787   -4.7550   -1.2677 C.ar      1 <0>        -0.1544
     24 C15        -5.4393   -5.8077   -1.5099 C.ar      1 <0>        -0.0969
     25 C16        -4.9644   -7.1064   -1.5039 C.ar      1 <0>        -0.1493
     26 C17        -3.6262   -7.3554   -1.2599 C.ar      1 <0>        -0.0991
     27 C18        -2.7594   -6.3069   -1.0217 C.ar      1 <0>        -0.1743
     28 H1          3.9325   -1.5009   -3.1157 H         1 <0>         0.1165
     29 H2          2.6772   -2.1239   -2.0183 H         1 <0>         0.0866
     30 H3          2.2513   -0.9389   -3.2763 H         1 <0>         0.0667
     31 H4          0.8592   -1.1346   -1.7307 H         1 <0>         0.1682
     32 H5          1.5453    2.5445    1.5033 H         1 <0>         0.1757
     33 H6          3.5490    2.5457    2.0872 H         1 <0>         0.0747
     34 H7          4.8266    3.2859    1.0932 H         1 <0>         0.1187
     35 H8          3.1235    3.7311    0.8295 H         1 <0>         0.0732
     36 H9         -2.2650    0.1261   -0.3745 H         1 <0>         0.1909
     37 H10        -0.5212   -4.9199   -0.4927 H         1 <0>         0.2746
     38 H11        -4.9510   -3.7412   -1.2687 H         1 <0>         0.1831
     39 H12        -6.4850   -5.6166   -1.7004 H         1 <0>         0.1396
     40 H13        -5.6401   -7.9281   -1.6899 H         1 <0>         0.1333
     41 H14        -3.2584   -8.3708   -1.2559 H         1 <0>         0.1340
     42 H15        -1.7143   -6.5020   -0.8316 H         1 <0>         0.1238
@<TRIPOS>BOND
     1    1    2 1
     2    1   28 1
     3    1   29 1
     4    1   30 1
     5    2    3 1
     6    3    8 ar
     7    3    4 ar
     8    4    5 ar
     9    4   31 1
    10    5    6 ar
    11    5   14 1
    12    6    7 ar
    13    6   11 1
    14    7    8 ar
    15    7   32 1
    16    8    9 1
    17    9   10 1
    18   10   33 1
    19   10   34 1
    20   10   35 1
    21   11   12 2
    22   11   13 1
    23   14   15 2
    24   14   36 1
    25   15   20 1
    26   15   16 1
    27   16   17 2
    28   16   18 am
    29   18   19 1
    30   18   37 1
    31   19   20 am
    32   19   22 1
    33   20   21 2
    34   22   27 ar
    35   22   23 ar
    36   23   24 ar
    37   23   38 1
    38   24   25 ar
    39   24   39 1
    40   25   26 ar
    41   25   40 1
    42   26   27 ar
    43   26   41 1
    44   27   42 1
@<TRIPOS>MOLECULE
ZINC01191511
   43    45     0     0     0
SMALL
USER_CHARGES

@<TRIPOS>ATOM
      1 C1          1.5683   -2.8482   -7.5911 C.3       1 <0>        -0.1982
      2 C2          1.8839   -1.6548   -6.6871 C.3       1 <0>        -0.0405
      3 C3          1.1212   -0.4243   -7.1821 C.3       1 <0>        -0.2050
      4 C4          3.3870   -1.3716   -6.7226 C.3       1 <0>        -0.1983
      5 C5          1.4654   -1.9704   -5.2742 C.ar      1 <0>        -0.0030
      6 C6          2.0240   -3.0477   -4.6122 C.ar      1 <0>        -0.1495
      7 C7          1.6401   -3.3372   -3.3161 C.ar      1 <0>        -0.0242
      8 C8          0.6984   -2.5488   -2.6818 C.ar      1 <0>        -0.7658
      9 C9          0.1363   -1.4743   -3.3455 C.ar      1 <0>        -0.0211
     10 C10         0.5233   -1.1823   -4.6400 C.ar      1 <0>        -0.1531
     11 S1          0.2091   -2.9177   -1.0298 S.o2      1 <0>         2.7631
     12 O1          0.4752   -4.2987   -0.8262 O.2       1 <0>        -0.9105
     13 O2         -1.0849   -2.3573   -0.8547 O.2       1 <0>        -0.9155
     14 N1          1.2255   -2.0862   -0.0208 N.pl3     1 <0>        -0.8117
     15 C11         1.2131   -0.6872   -0.0132 C.ar      1 <0>         0.0609
     16 C12         0.0021   -0.0041    0.0020 C.ar      1 <0>        -0.1567
     17 C13        -0.0166    1.3763    0.0096 C.ar      1 <0>        -0.1057
     18 C14         1.1753    2.0846    0.0020 C.ar      1 <0>        -0.0099
     19 C15         2.3931    1.4018   -0.0137 C.ar      1 <0>         0.0143
     20 C16         2.4088    0.0156   -0.0213 C.ar      1 <0>        -0.1455
     21 N2          3.3966    2.3676   -0.0181 N.am      1 <0>        -0.2962
     22 H1          4.3509    2.1942   -0.0282 H         1 <0>         0.2687
     23 C17         2.8174    3.5828   -0.0068 C.2       1 <0>         0.3903
     24 O3          3.4140    4.6435   -0.0072 O.2       1 <0>        -0.3807
     25 N3          1.4780    3.4468    0.0057 N.am      1 <0>        -0.2964
     26 H2          0.8336    4.1718    0.0153 H         1 <0>         0.2695
     27 H3          0.4974   -3.0500   -7.5658 H         1 <0>         0.0818
     28 H4          1.8710   -2.6200   -8.6130 H         1 <0>         0.0795
     29 H5          2.1117   -3.7249   -7.2384 H         1 <0>         0.0771
     30 H6          1.3460    0.4259   -6.5381 H         1 <0>         0.0787
     31 H7          1.4239   -0.1961   -8.2041 H         1 <0>         0.0801
     32 H8          0.0503   -0.6261   -7.1568 H         1 <0>         0.0796
     33 H9          3.9304   -2.2482   -6.3700 H         1 <0>         0.0763
     34 H10         3.6897   -1.1433   -7.7446 H         1 <0>         0.0800
     35 H11         3.6118   -0.5214   -6.0786 H         1 <0>         0.0800
     36 H12         2.7600   -3.6635   -5.1077 H         1 <0>         0.1389
     37 H13         2.0763   -4.1791   -2.7990 H         1 <0>         0.1480
     38 H14        -0.6027   -0.8610   -2.8514 H         1 <0>         0.1491
     39 H15         0.0872   -0.3404   -5.1571 H         1 <0>         0.1446
     40 H16         1.8294   -2.5691    0.5648 H         1 <0>         0.2539
     41 H17        -0.9268   -0.5551    0.0076 H         1 <0>         0.1889
     42 H18        -0.9589    1.9040    0.0169 H         1 <0>         0.1434
     43 H19         3.3491   -0.5154   -0.0339 H         1 <0>         0.1406
@<TRIPOS>BOND
     1    1    2 1
     2    1   27 1
     3    1   28 1
     4    1   29 1
     5    2    3 1
     6    2    4 1
     7    2    5 1
     8    3   30 1
     9    3   31 1
    10    3   32 1
    11    4   33 1
    12    4   34 1
    13    4   35 1
    14    5   10 ar
    15    5    6 ar
    16    6    7 ar
    17    6   36 1
    18    7    8 ar
    19    7   37 1
    20    8    9 ar
    21    8   11 1
    22    9   10 ar
    23    9   38 1
    24   10   39 1
    25   11   12 2
    26   11   13 2
    27   11   14 1
    28   14   15 1
    29   14   40 1
    30   15   20 ar
    31   15   16 ar
    32   16   17 ar
    33   16   41 1
    34   17   18 ar
    35   17   42 1
    36   18   25 1
    37   18   19 ar
    38   19   20 ar
    39   19   21 1
    40   20   43 1
    41   21   22 1
    42   21   23 am
    43   23   24 2
    44   23   25 am
    45   25   26 1
@<TRIPOS>MOLECULE
ZINC01191528
   42    44     0     0     0
SMALL
USER_CHARGES

@<TRIPOS>ATOM
      1 C1          3.5240    3.0769   -0.4181 C.3       1 <0>        -0.0642
      2 O1          2.3337    3.7270   -0.8680 O.3       1 <0>        -0.2102
      3 C2          1.1628    3.0603   -0.6926 C.ar      1 <0>         0.1084
      4 C3         -0.0308    3.6360   -1.1078 C.ar      1 <0>        -0.1620
      5 C4         -1.2208    2.9630   -0.9316 C.ar      1 <0>        -0.0839
      6 C5         -1.2257    1.7034   -0.3292 C.ar      1 <0>        -0.0565
      7 C6         -0.0229    1.1260    0.0824 C.ar      1 <0>        -0.0453
      8 C7          1.1629    1.8053   -0.0982 C.ar      1 <0>        -0.2275
      9 C8         -2.4999    0.9812   -0.1323 C.2       1 <0>        -0.0163
     10 N1         -2.6410   -0.3021    0.1069 N.2       1 <0>        -0.0823
     11 N2         -3.8869   -0.5935    0.2244 N.2       1 <0>        -0.1134
     12 C9         -4.6208    0.4850    0.0676 C.2       1 <0>        -0.2237
     13 N3         -3.7642    1.5281   -0.1593 N.pl3     1 <0>        -0.1075
     14 C10        -4.1025    2.8710   -0.3770 C.ar      1 <0>         0.0214
     15 C11        -3.7793    3.8321    0.5712 C.ar      1 <0>        -0.1089
     16 C12        -4.1084    5.1554    0.3512 C.ar      1 <0>        -0.1221
     17 C13        -4.7701    5.5214   -0.8066 C.ar      1 <0>        -0.1142
     18 C14        -5.0984    4.5654   -1.7502 C.ar      1 <0>        -0.1206
     19 C15        -4.7664    3.2415   -1.5385 C.ar      1 <0>        -0.1139
     20 S1         -6.3790    0.5732    0.1422 S.3       1 <0>         0.3356
     21 C16        -6.7669   -1.1629    0.4761 C.3       1 <0>        -0.3110
     22 C17        -8.2605   -1.3322    0.5837 C.2       1 <0>         0.3171
     23 O2         -8.9908   -0.3735    0.4479 O.2       1 <0>        -0.3398
     24 N4         -8.7847   -2.5491    0.8307 N.am      1 <0>        -0.3264
     25 N5        -10.1386   -2.7025    0.9282 N.3       1 <0>        -0.2104
     26 H1          4.3844    3.7158   -0.6175 H         1 <0>         0.1097
     27 H2          3.4522    2.8881    0.6530 H         1 <0>         0.0697
     28 H3          3.6435    2.1312   -0.9466 H         1 <0>         0.0707
     29 H4         -0.0266    4.6123   -1.5696 H         1 <0>         0.1469
     30 H5         -2.1486    3.4112   -1.2551 H         1 <0>         0.1467
     31 H6         -0.0220    0.1501    0.5450 H         1 <0>         0.1549
     32 H7          2.0933    1.3610    0.2233 H         1 <0>         0.1405
     33 H8         -3.2667    3.5462    1.4779 H         1 <0>         0.1500
     34 H9         -3.8526    5.9043    1.0861 H         1 <0>         0.1413
     35 H10        -5.0307    6.5560   -0.9742 H         1 <0>         0.1375
     36 H11        -5.6152    4.8543   -2.6535 H         1 <0>         0.1415
     37 H12        -5.0228    2.4954   -2.2761 H         1 <0>         0.1503
     38 H13        -6.3886   -1.7826   -0.3369 H         1 <0>         0.1329
     39 H14        -6.2985   -1.4663    1.4124 H         1 <0>         0.1392
     40 H15        -8.2006   -3.3158    0.9393 H         1 <0>         0.2256
     41 H16       -10.6012   -2.3677    0.0964 H         1 <0>         0.1624
     42 H17       -10.3810   -3.6641    1.1145 H         1 <0>         0.1579
@<TRIPOS>BOND
     1    1    2 1
     2    1   26 1
     3    1   27 1
     4    1   28 1
     5    2    3 1
     6    3    8 ar
     7    3    4 ar
     8    4    5 ar
     9    4   29 1
    10    5    6 ar
    11    5   30 1
    12    6    7 ar
    13    6    9 1
    14    7    8 ar
    15    7   31 1
    16    8   32 1
    17    9   13 1
    18    9   10 2
    19   10   11 1
    20   11   12 2
    21   12   13 1
    22   12   20 1
    23   13   14 1
    24   14   19 ar
    25   14   15 ar
    26   15   16 ar
    27   15   33 1
    28   16   17 ar
    29   16   34 1
    30   17   18 ar
    31   17   35 1
    32   18   19 ar
    33   18   36 1
    34   19   37 1
    35   20   21 1
    36   21   22 1
    37   21   38 1
    38   21   39 1
    39   22   23 2
    40   22   24 am
    41   24   25 1
    42   24   40 1
    43   25   41 1
    44   25   42 1
@<TRIPOS>MOLECULE
ZINC01191698
   45    47     0     0     0
SMALL
USER_CHARGES

@<TRIPOS>ATOM
      1 C1         -1.8486    6.4504   -0.9237 C.3       1 <0>        -0.2388
      2 C2         -1.8703    5.7287    0.4252 C.3       1 <0>         0.0674
      3 H1         -0.9156    5.8741    0.9305 H         1 <0>         0.0919
      4 C3         -2.9800    6.2893    1.2770 C.ar      1 <0>        -0.0832
      5 C4         -4.2676    5.8054    1.1409 C.ar      1 <0>        -0.0965
      6 C5         -5.2846    6.3165    1.9253 C.ar      1 <0>        -0.1305
      7 C6         -5.0157    7.3181    2.8394 C.ar      1 <0>        -0.1224
      8 C7         -3.7290    7.8057    2.9717 C.ar      1 <0>        -0.1293
      9 C8         -2.7112    7.2915    2.1904 C.ar      1 <0>        -0.1188
     10 O1         -2.0903    4.3325    0.2149 O.3       1 <0>        -0.1874
     11 C9         -1.0043    3.5761   -0.0858 C.ar      1 <0>         0.1137
     12 C10         0.2424    4.1766   -0.2194 C.ar      1 <0>        -0.2086
     13 C11         1.3476    3.4163   -0.5240 C.ar      1 <0>        -0.0288
     14 C12         1.2175    2.0302   -0.7002 C.ar      1 <0>        -0.1208
     15 C13        -0.0417    1.4260   -0.5644 C.ar      1 <0>        -0.1466
     16 C14        -1.1439    2.1987   -0.2640 C.ar      1 <0>         0.0547
     17 O2         -2.3669    1.6176   -0.1367 O.3       1 <0>        -0.1960
     18 C15        -2.4360    0.2031   -0.3274 C.3       1 <0>        -0.0648
     19 C16         2.3903    1.2182   -1.0237 C.2       1 <0>         0.1080
     20 C17         3.2731    1.6378   -2.0003 C.2       1 <0>        -0.2914
     21 C18         2.9518    2.7657   -2.8971 C.2       1 <0>         0.3480
     22 O3          1.8948    3.3598   -2.8000 O.2       1 <0>        -0.3196
     23 N1          3.8652    3.1230   -3.8233 N.am      1 <0>        -0.3422
     24 C19         5.0312    2.4734   -3.9451 C.2       1 <0>         0.4065
     25 O4          5.8076    2.8423   -4.8043 O.2       1 <0>        -0.3671
     26 N2          5.3873    1.4389   -3.1709 N.am      1 <0>        -0.3413
     27 C20         4.5771    0.9743   -2.1975 C.2       1 <0>         0.3530
     28 O5          4.9119    0.0348   -1.5013 O.2       1 <0>        -0.3292
     29 H2         -2.8033    6.3051   -1.4290 H         1 <0>         0.0964
     30 H3         -1.6808    7.5154   -0.7633 H         1 <0>         0.0873
     31 H4         -1.0460    6.0450   -1.5398 H         1 <0>         0.0894
     32 H5         -4.4785    5.0255    0.4241 H         1 <0>         0.1479
     33 H6         -6.2898    5.9353    1.8221 H         1 <0>         0.1318
     34 H7         -5.8108    7.7193    3.4503 H         1 <0>         0.1294
     35 H8         -3.5189    8.5882    3.6859 H         1 <0>         0.1304
     36 H9         -1.7059    7.6725    2.2938 H         1 <0>         0.1272
     37 H10         0.3434    5.2433   -0.0840 H         1 <0>         0.1485
     38 H11         2.3148    3.8857   -0.6272 H         1 <0>         0.1362
     39 H12        -0.1482    0.3598   -0.6992 H         1 <0>         0.1430
     40 H13        -2.0972   -0.0449   -1.3332 H         1 <0>         0.0666
     41 H14        -1.7982   -0.2937    0.4037 H         1 <0>         0.0648
     42 H15        -3.4654   -0.1310   -0.1980 H         1 <0>         0.1117
     43 H16         2.5661    0.2906   -0.4992 H         1 <0>         0.1632
     44 H17         3.6717    3.8645   -4.4180 H         1 <0>         0.2727
     45 H18         6.2478    1.0146   -3.3137 H         1 <0>         0.2738
@<TRIPOS>BOND
     1    1    2 1
     2    1   29 1
     3    1   30 1
     4    1   31 1
     5    2    3 1
     6    2    4 1
     7    2   10 1
     8    4    9 ar
     9    4    5 ar
    10    5    6 ar
    11    5   32 1
    12    6    7 ar
    13    6   33 1
    14    7    8 ar
    15    7   34 1
    16    8    9 ar
    17    8   35 1
    18    9   36 1
    19   10   11 1
    20   11   16 ar
    21   11   12 ar
    22   12   13 ar
    23   12   37 1
    24   13   14 ar
    25   13   38 1
    26   14   15 ar
    27   14   19 1
    28   15   16 ar
    29   15   39 1
    30   16   17 1
    31   17   18 1
    32   18   40 1
    33   18   41 1
    34   18   42 1
    35   19   20 2
    36   19   43 1
    37   20   27 1
    38   20   21 1
    39   21   22 2
    40   21   23 am
    41   23   24 am
    42   23   44 1
    43   24   25 2
    44   24   26 am
    45   26   27 am
    46   26   45 1
    47   27   28 2
@<TRIPOS>MOLECULE
ZINC01196922
   48    50     0     0     0
SMALL
USER_CHARGES

@<TRIPOS>ATOM
      1 C1         -4.3201   -3.5717    0.1548 C.3       1 <0>        -0.2531
      2 C2         -3.1109   -2.6744    0.0933 C.ar      1 <0>         0.0566
      3 C3         -3.2678   -1.3013    0.1638 C.ar      1 <0>        -0.1615
      4 C4         -2.1649   -0.4745    0.1134 C.ar      1 <0>        -0.0516
      5 C5         -0.8891   -1.0254   -0.0207 C.ar      1 <0>        -0.1609
      6 C6         -0.7379   -2.4111   -0.0913 C.ar      1 <0>         0.0376
      7 C7         -1.8491   -3.2270   -0.0339 C.ar      1 <0>        -0.7718
      8 S1         -1.6605   -4.9766   -0.1234 S.o2      1 <0>         2.7686
      9 O1         -2.6578   -5.4472   -1.0196 O.2       1 <0>        -0.9170
     10 O2         -0.2762   -5.2261   -0.3248 O.2       1 <0>        -0.9071
     11 N1         -2.0392   -5.5868    1.3688 N.pl3     1 <0>        -0.8357
     12 C8         -1.0230   -5.6604    2.4274 C.3       1 <0>         0.0011
     13 C9         -1.5687   -4.9551    3.6783 C.3       1 <0>        -0.1783
     14 C10        -2.9167   -5.5724    4.0577 C.3       1 <0>        -0.1544
     15 C11        -3.9138   -5.3659    2.9152 C.3       1 <0>        -0.1828
     16 C12        -3.3962   -6.0706    1.6573 C.3       1 <0>        -0.0096
     17 C13         0.2969   -0.1452   -0.0816 C.2       1 <0>         0.3468
     18 O3          1.4069   -0.6279   -0.1934 O.2       1 <0>        -0.3396
     19 N2          0.1475    1.1925   -0.0132 N.am      1 <0>        -0.3259
     20 C14         1.2735    2.0200    0.0395 C.ar      1 <0>         0.0772
     21 C15         1.2403    3.2783   -0.5490 C.ar      1 <0>        -0.1732
     22 C16         2.3525    4.0955   -0.4970 C.ar      1 <0>        -0.0974
     23 C17         3.5009    3.6645    0.1400 C.ar      1 <0>        -0.1708
     24 C18         3.5398    2.4090    0.7299 C.ar      1 <0>         0.0896
     25 C19         2.4238    1.5879    0.6844 C.ar      1 <0>        -0.1547
     26 O4          4.6693    1.9869    1.3565 O.3       1 <0>        -0.2859
     27 H1         -4.4653   -3.9160    1.1788 H         1 <0>         0.1033
     28 H2         -5.2006   -3.0178   -0.1706 H         1 <0>         0.0967
     29 H3         -4.1689   -4.4305   -0.4992 H         1 <0>         0.1455
     30 H4         -4.2557   -0.8763    0.2634 H         1 <0>         0.1400
     31 H5         -2.2883    0.5967    0.1731 H         1 <0>         0.1269
     32 H6          0.2467   -2.8437   -0.1902 H         1 <0>         0.1824
     33 H7         -0.8094   -6.7043    2.6570 H         1 <0>         0.0920
     34 H8         -0.1118   -5.1635    2.0943 H         1 <0>         0.1086
     35 H9         -1.7001   -3.8929    3.4719 H         1 <0>         0.0872
     36 H10        -0.8658   -5.0820    4.5017 H         1 <0>         0.0904
     37 H11        -3.2945   -5.0927    4.9606 H         1 <0>         0.0833
     38 H12        -2.7891   -6.6394    4.2398 H         1 <0>         0.0855
     39 H13        -4.0232   -4.2998    2.7160 H         1 <0>         0.0871
     40 H14        -4.8802   -5.7851    3.1955 H         1 <0>         0.0891
     41 H15        -4.0513   -5.8445    0.8160 H         1 <0>         0.1121
     42 H16        -3.3722   -7.1473    1.8254 H         1 <0>         0.0921
     43 H17        -0.7411    1.5815   -0.0045 H         1 <0>         0.2321
     44 H18         0.3440    3.6177   -1.0470 H         1 <0>         0.1296
     45 H19         2.3247    5.0734   -0.9546 H         1 <0>         0.1342
     46 H20         4.3690    4.3057    0.1791 H         1 <0>         0.1399
     47 H21         2.4507    0.6122    1.1468 H         1 <0>         0.1693
     48 H22         4.7053    2.2120    2.2963 H         1 <0>         0.2260
@<TRIPOS>BOND
     1    1    2 1
     2    1   27 1
     3    1   28 1
     4    1   29 1
     5    2    7 ar
     6    2    3 ar
     7    3    4 ar
     8    3   30 1
     9    4    5 ar
    10    4   31 1
    11    5    6 ar
    12    5   17 1
    13    6    7 ar
    14    6   32 1
    15    7    8 1
    16    8    9 2
    17    8   10 2
    18    8   11 1
    19   11   16 1
    20   11   12 1
    21   12   13 1
    22   12   33 1
    23   12   34 1
    24   13   14 1
    25   13   35 1
    26   13   36 1
    27   14   15 1
    28   14   37 1
    29   14   38 1
    30   15   16 1
    31   15   39 1
    32   15   40 1
    33   16   41 1
    34   16   42 1
    35   17   18 2
    36   17   19 am
    37   19   20 1
    38   19   43 1
    39   20   25 ar
    40   20   21 ar
    41   21   22 ar
    42   21   44 1
    43   22   23 ar
    44   22   45 1
    45   23   24 ar
    46   23   46 1
    47   24   25 ar
    48   24   26 1
    49   25   47 1
    50   26   48 1
@<TRIPOS>MOLECULE
ZINC01216699
   41    42     0     0     0
SMALL
USER_CHARGES

@<TRIPOS>ATOM
      1 C1          0.1633    4.9197   -1.0852 C.3       1 <0>        -0.1958
      2 C2          0.2617    3.6185   -0.2864 C.3       1 <0>        -0.1896
      3 C3         -1.0430    2.8704   -0.3823 C.2       1 <0>         0.3017
      4 O1         -1.9612    3.3325   -1.0261 O.2       1 <0>        -0.3572
      5 N1         -1.1914    1.6905    0.2520 N.am      1 <0>        -0.3284
      6 C4         -2.4363    1.0517    0.2591 C.ar      1 <0>         0.0794
      7 C5         -2.5059   -0.3360    0.2640 C.ar      1 <0>        -0.1736
      8 C6         -3.7344   -0.9675    0.2709 C.ar      1 <0>        -0.0957
      9 C7         -4.8978   -0.2220    0.2725 C.ar      1 <0>        -0.1404
     10 C8         -4.8351    1.1658    0.2672 C.ar      1 <0>         0.0713
     11 C9         -3.6023    1.8032    0.2670 C.ar      1 <0>        -0.1580
     12 N2         -6.0130    1.9197    0.2689 N.am      1 <0>        -0.3161
     13 C10        -7.0892    1.4868    0.9550 C.2       1 <0>         0.3434
     14 O2         -7.0652    0.4013    1.5016 O.2       1 <0>        -0.3456
     15 C11        -8.2988    2.3319    1.0428 C.ar      1 <0>        -0.0872
     16 C12        -8.3275    3.5816    0.4210 C.ar      1 <0>        -0.1178
     17 C13        -9.4609    4.3634    0.5031 C.ar      1 <0>        -0.0770
     18 C14       -10.5644    3.9156    1.2080 C.ar      1 <0>        -0.0870
     19 C15       -10.5406    2.6806    1.8309 C.ar      1 <0>        -0.0247
     20 C16        -9.4150    1.8866    1.7525 C.ar      1 <0>        -0.0747
     21 C17       -11.7470    2.2013    2.5963 C.3       1 <0>        -0.1852
     22 N3        -11.7754    4.7622    1.2963 N.pl3     1 <0>         0.5433
     23 O3        -12.1323    5.4169    0.3333 O.2       1 <0>        -0.3472
     24 O4        -12.4151    4.8039    2.3320 O.3       1 <0>        -0.3480
     25 H1          1.1069    5.4609   -1.0159 H         1 <0>         0.0745
     26 H2         -0.0479    4.6899   -2.1296 H         1 <0>         0.0919
     27 H3         -0.6393    5.5355   -0.6793 H         1 <0>         0.0891
     28 H4          0.4728    3.8484    0.7579 H         1 <0>         0.1014
     29 H5          1.0643    3.0028   -0.6924 H         1 <0>         0.1007
     30 H6         -0.4352    1.2842    0.7037 H         1 <0>         0.2340
     31 H7         -1.5984   -0.9216    0.2620 H         1 <0>         0.1302
     32 H8         -3.7858   -2.0463    0.2747 H         1 <0>         0.1372
     33 H9         -5.8568   -0.7187    0.2776 H         1 <0>         0.1637
     34 H10        -3.5508    2.8820    0.2676 H         1 <0>         0.1597
     35 H11        -6.0554    2.7543   -0.2237 H         1 <0>         0.2381
     36 H12        -7.4655    3.9339   -0.1260 H         1 <0>         0.1438
     37 H13        -9.4858    5.3288    0.0198 H         1 <0>         0.1631
     38 H14        -9.3976    0.9228    2.2395 H         1 <0>         0.1738
     39 H15       -11.7220    2.6093    3.6067 H         1 <0>         0.1148
     40 H16       -12.6537    2.5354    2.0919 H         1 <0>         0.1037
     41 H17       -11.7380    1.1123    2.6439 H         1 <0>         0.0906
@<TRIPOS>BOND
     1    1    2 1
     2    1   25 1
     3    1   26 1
     4    1   27 1
     5    2    3 1
     6    2   28 1
     7    2   29 1
     8    3    4 2
     9    3    5 am
    10    5    6 1
    11    5   30 1
    12    6   11 ar
    13    6    7 ar
    14    7    8 ar
    15    7   31 1
    16    8    9 ar
    17    8   32 1
    18    9   10 ar
    19    9   33 1
    20   10   11 ar
    21   10   12 1
    22   11   34 1
    23   12   13 am
    24   12   35 1
    25   13   14 2
    26   13   15 1
    27   15   20 ar
    28   15   16 ar
    29   16   17 ar
    30   16   36 1
    31   17   18 ar
    32   17   37 1
    33   18   19 ar
    34   18   22 1
    35   19   20 ar
    36   19   21 1
    37   20   38 1
    38   21   39 1
    39   21   40 1
    40   21   41 1
    41   22   23 2
    42   22   24 1
@<TRIPOS>MOLECULE
ZINC01218273
   43    44     0     0     0
SMALL
USER_CHARGES

@<TRIPOS>ATOM
      1 C1         -2.5201    0.0819   -2.7096 C.3       1 <0>        -0.2416
      2 C2         -2.5256    1.5481   -2.3615 C.2       1 <0>         0.3004
      3 O1         -3.5778    2.1407   -2.2484 O.2       1 <0>        -0.3566
      4 N1         -1.3613    2.1997   -2.1704 N.am      1 <0>        -0.3289
      5 C3         -1.3596    3.5856   -1.9669 C.ar      1 <0>         0.0525
      6 C4         -2.3060    4.3814   -2.5989 C.ar      1 <0>        -0.1119
      7 C5         -2.3079    5.7465   -2.3939 C.ar      1 <0>        -0.1400
      8 C6         -1.3560    6.3254   -1.5645 C.ar      1 <0>         0.0385
      9 C7         -0.4060    5.5301   -0.9369 C.ar      1 <0>        -0.1022
     10 C8         -0.4078    4.1644   -1.1375 C.ar      1 <0>        -0.1450
     11 N2         -1.3546    7.7105   -1.3607 N.am      1 <0>        -0.3180
     12 C9         -0.1874    8.3698   -1.2209 C.2       1 <0>         0.3380
     13 O2          0.8599    7.7526   -1.1918 O.2       1 <0>        -0.3230
     14 C10        -0.1804    9.8409   -1.1030 C.ar      1 <0>        -0.0820
     15 C11        -1.3857   10.5407   -0.9953 C.ar      1 <0>        -0.1741
     16 C12        -1.3735   11.9167   -0.8785 C.ar      1 <0>         0.0943
     17 C13        -0.1612   12.6058   -0.8813 C.ar      1 <0>         0.0975
     18 C14         1.0351   11.9113   -0.9945 C.ar      1 <0>        -0.1594
     19 C15         1.0303   10.5374   -1.1047 C.ar      1 <0>        -0.0412
     20 N3          2.3082    9.8001   -1.2243 N.pl3     1 <0>         0.5502
     21 O3          3.2126   10.0175   -0.4381 O.2       1 <0>        -0.3626
     22 O4          2.4552    8.9758   -2.1089 O.3       1 <0>        -0.2960
     23 O5         -0.1511   13.9594   -0.7725 O.3       1 <0>        -0.1840
     24 C16         1.1254   14.6015   -0.7817 C.3       1 <0>        -0.0712
     25 O6         -2.5440   12.6001   -0.7674 O.3       1 <0>        -0.1849
     26 C17        -3.7478   11.8301   -0.7715 C.3       1 <0>        -0.0687
     27 H1         -3.5462   -0.2691   -2.8200 H         1 <0>         0.1184
     28 H2         -1.9824   -0.0672   -3.6460 H         1 <0>         0.0969
     29 H3         -2.0279   -0.4784   -1.9148 H         1 <0>         0.0955
     30 H4         -0.5247    1.7089   -2.1738 H         1 <0>         0.2332
     31 H5         -3.0434    3.9317   -3.2473 H         1 <0>         0.1612
     32 H6         -3.0467    6.3649   -2.8819 H         1 <0>         0.1310
     33 H7          0.3340    5.9801   -0.2917 H         1 <0>         0.1677
     34 H8          0.3307    3.5459   -0.6493 H         1 <0>         0.1357
     35 H9         -2.1935    8.1957   -1.3201 H         1 <0>         0.2283
     36 H10        -2.3240   10.0061   -0.9985 H         1 <0>         0.1506
     37 H11         1.9720   12.4486   -0.9959 H         1 <0>         0.1709
     38 H12         1.7220   14.2361    0.0542 H         1 <0>         0.0766
     39 H13         1.6373   14.3791   -1.7180 H         1 <0>         0.0731
     40 H14         0.9908   15.6791   -0.6883 H         1 <0>         0.1202
     41 H15        -3.8205   11.2746   -1.7066 H         1 <0>         0.0688
     42 H16        -3.7355   11.1322    0.0657 H         1 <0>         0.0703
     43 H17        -4.6054   12.4961   -0.6769 H         1 <0>         0.1215
@<TRIPOS>BOND
     1    1    2 1
     2    1   27 1
     3    1   28 1
     4    1   29 1
     5    2    3 2
     6    2    4 am
     7    4    5 1
     8    4   30 1
     9    5   10 ar
    10    5    6 ar
    11    6    7 ar
    12    6   31 1
    13    7    8 ar
    14    7   32 1
    15    8    9 ar
    16    8   11 1
    17    9   10 ar
    18    9   33 1
    19   10   34 1
    20   11   12 am
    21   11   35 1
    22   12   13 2
    23   12   14 1
    24   14   19 ar
    25   14   15 ar
    26   15   16 ar
    27   15   36 1
    28   16   17 ar
    29   16   25 1
    30   17   18 ar
    31   17   23 1
    32   18   19 ar
    33   18   37 1
    34   19   20 1
    35   20   21 2
    36   20   22 1
    37   23   24 1
    38   24   38 1
    39   24   39 1
    40   24   40 1
    41   25   26 1
    42   26   41 1
    43   26   42 1
    44   26   43 1
@<TRIPOS>MOLECULE
ZINC01220755
   40    42     0     0     0
SMALL
USER_CHARGES

@<TRIPOS>ATOM
      1 C1          8.4577    2.8998   -0.4848 C.3       1 <0>        -0.2156
      2 C2          7.0468    3.4838   -0.3882 C.3       1 <0>        -0.0036
      3 O1          6.0744    2.4057   -0.4071 O.3       1 <0>        -0.2681
      4 C3          4.7747    2.7528   -0.3292 C.2       1 <0>         0.3478
      5 O2          4.4625    3.9241   -0.2476 O.2       1 <0>        -0.3494
      6 C4          3.7308    1.7105   -0.3429 C.ar      1 <0>        -0.0915
      7 C5          4.0836    0.3647   -0.4364 C.ar      1 <0>        -0.0786
      8 C6          3.1030   -0.6067   -0.4479 C.ar      1 <0>        -0.1349
      9 C7          1.7651   -0.2556   -0.3676 C.ar      1 <0>        -0.1002
     10 C8          1.3939    1.0701   -0.2753 C.ar      1 <0>        -0.1126
     11 C9          2.3693    2.0682   -0.2621 C.ar      1 <0>         0.0431
     12 C10         1.9790    3.4859   -0.1642 C.2       1 <0>         0.0453
     13 C11         1.0333    4.1170   -0.9475 C.2       1 <0>        -0.2192
     14 C12         0.9746    5.4438   -0.5269 C.2       1 <0>        -0.1439
     15 C13         1.8932    5.5781    0.5063 C.2       1 <0>        -0.0767
     16 O3          2.4801    4.3788    0.7063 O.3       1 <0>         0.0448
     17 C14         2.1605    6.7551    1.2222 C.2       1 <0>         0.1251
     18 C15         2.4194    6.6950    2.5875 C.2       1 <0>        -0.2830
     19 C16         2.2275    5.4504    3.3523 C.2       1 <0>         0.3493
     20 O4          1.8350    4.4361    2.8068 O.2       1 <0>        -0.3154
     21 N1          2.5040    5.4642    4.6726 N.am      1 <0>        -0.3418
     22 C17         2.9318    6.5760    5.2871 C.2       1 <0>         0.4074
     23 O5          3.1584    6.5234    6.4801 O.2       1 <0>        -0.3717
     24 N2          3.1224    7.7429    4.6556 N.am      1 <0>        -0.3414
     25 C18         2.8916    7.8747    3.3331 C.2       1 <0>         0.3544
     26 O6          3.0684    8.9394    2.7711 O.2       1 <0>        -0.3331
     27 H1          8.6348    2.2358    0.3613 H         1 <0>         0.0866
     28 H2          8.5557    2.3384   -1.4139 H         1 <0>         0.0857
     29 H3          9.1877    3.7091   -0.4705 H         1 <0>         0.0909
     30 H4          6.8698    4.1478   -1.2343 H         1 <0>         0.0899
     31 H5          6.9488    4.0452    0.5410 H         1 <0>         0.0912
     32 H6          5.1241    0.0824   -0.4994 H         1 <0>         0.1534
     33 H7          3.3806   -1.6479   -0.5197 H         1 <0>         0.1384
     34 H8          1.0073   -1.0251   -0.3776 H         1 <0>         0.1386
     35 H9          0.3486    1.3356   -0.2180 H         1 <0>         0.1476
     36 H10         0.4495    3.6671   -1.7370 H         1 <0>         0.1603
     37 H11         0.3373    6.2186   -0.9269 H         1 <0>         0.1593
     38 H12         2.1652    7.7075    0.7131 H         1 <0>         0.1771
     39 H13         2.3868    4.6520    5.1898 H         1 <0>         0.2718
     40 H14         3.4336    8.5100    5.1612 H         1 <0>         0.2724
@<TRIPOS>BOND
     1    1    2 1
     2    1   27 1
     3    1   28 1
     4    1   29 1
     5    2    3 1
     6    2   30 1
     7    2   31 1
     8    3    4 1
     9    4    5 2
    10    4    6 1
    11    6   11 ar
    12    6    7 ar
    13    7    8 ar
    14    7   32 1
    15    8    9 ar
    16    8   33 1
    17    9   10 ar
    18    9   34 1
    19   10   11 ar
    20   10   35 1
    21   11   12 1
    22   12   16 1
    23   12   13 2
    24   13   14 1
    25   13   36 1
    26   14   15 2
    27   14   37 1
    28   15   16 1
    29   15   17 1
    30   17   18 2
    31   17   38 1
    32   18   25 1
    33   18   19 1
    34   19   20 2
    35   19   21 am
    36   21   22 am
    37   21   39 1
    38   22   23 2
    39   22   24 am
    40   24   25 am
    41   24   40 1
    42   25   26 2
@<TRIPOS>MOLECULE
ZINC01226298
   45    47     0     0     0
SMALL
USER_CHARGES

@<TRIPOS>ATOM
      1 C1          8.1129    7.7719   -0.8424 C.3       1 <0>        -0.0665
      2 O1          8.2069    6.3461   -0.8588 O.3       1 <0>        -0.1976
      3 C2          7.0550    5.6492   -0.6659 C.ar      1 <0>         0.0744
      4 C3          5.8648    6.3231   -0.4661 C.ar      1 <0>        -0.1925
      5 C4          4.6832    5.6039   -0.2687 C.ar      1 <0>        -0.0668
      6 C5          4.7116    4.2069   -0.2686 C.ar      1 <0>        -0.1673
      7 C6          5.9019    3.5417   -0.4739 C.ar      1 <0>        -0.1168
      8 C7          7.0748    4.2562   -0.6703 C.ar      1 <0>         0.0538
      9 O2          8.2463    3.5954   -0.8670 O.3       1 <0>        -0.2744
     10 C8          3.4109    6.3171   -0.0552 C.2       1 <0>        -0.1206
     11 N1          2.3847    5.6840    0.4255 N.2       1 <0>         0.0218
     12 N2          2.5737    4.5623    1.2433 N.am      1 <0>        -0.3327
     13 C9          1.5143    3.8249    1.6312 C.2       1 <0>         0.3606
     14 O3          0.3941    4.1334    1.2713 O.2       1 <0>        -0.3259
     15 C10         1.7133    2.6436    2.4925 C.ar      1 <0>        -0.1623
     16 C11         0.6157    1.8778    2.8957 C.ar      1 <0>        -0.0365
     17 C12         0.8051    0.7759    3.6990 C.ar      1 <0>        -0.1897
     18 C13         2.0872    0.4245    4.1097 C.ar      1 <0>         0.1116
     19 C14         3.1819    1.1848    3.7106 C.ar      1 <0>        -0.1744
     20 C15         2.9998    2.2877    2.9070 C.ar      1 <0>        -0.0812
     21 N3          2.2753   -0.6920    4.9237 N.am      1 <0>        -0.2815
     22 C16         1.1864   -1.4873    5.5033 C.3       1 <0>        -0.0261
     23 C17         1.8350   -2.3073    6.6404 C.3       1 <0>        -0.1774
     24 C18         3.3065   -2.3869    6.1721 C.3       1 <0>        -0.1983
     25 C19         3.4772   -1.1816    5.2737 C.2       1 <0>         0.3141
     26 O4          4.5434   -0.7224    4.9226 O.2       1 <0>        -0.3401
     27 H1          9.1003    8.2030   -1.0078 H         1 <0>         0.1130
     28 H2          7.4362    8.1005   -1.6312 H         1 <0>         0.0709
     29 H3          7.7306    8.0998    0.1242 H         1 <0>         0.0663
     30 H4          5.8482    7.4030   -0.4628 H         1 <0>         0.1429
     31 H5          3.8007    3.6482   -0.1120 H         1 <0>         0.1532
     32 H6          5.9219    2.4619   -0.4778 H         1 <0>         0.1508
     33 H7          8.7312    3.4035   -0.0527 H         1 <0>         0.2277
     34 H8          3.3326    7.3664   -0.2986 H         1 <0>         0.1832
     35 H9          3.4670    4.3163    1.5303 H         1 <0>         0.2257
     36 H10        -0.3792    2.1476    2.5739 H         1 <0>         0.1602
     37 H11        -0.0425    0.1838    4.0109 H         1 <0>         0.1365
     38 H12         4.1756    0.9097    4.0318 H         1 <0>         0.1863
     39 H13         3.8500    2.8776    2.5979 H         1 <0>         0.1288
     40 H14         0.4130   -0.8321    5.9044 H         1 <0>         0.1008
     41 H15         0.7643   -2.1537    4.7510 H         1 <0>         0.0944
     42 H16         1.7566   -1.7833    7.5930 H         1 <0>         0.1034
     43 H17         1.3923   -3.3012    6.7061 H         1 <0>         0.1039
     44 H18         3.9821   -2.3289    7.0254 H         1 <0>         0.1235
     45 H19         3.4793   -3.3056    5.6116 H         1 <0>         0.1210
@<TRIPOS>BOND
     1    1    2 1
     2    1   27 1
     3    1   28 1
     4    1   29 1
     5    2    3 1
     6    3    8 ar
     7    3    4 ar
     8    4    5 ar
     9    4   30 1
    10    5    6 ar
    11    5   10 1
    12    6    7 ar
    13    6   31 1
    14    7    8 ar
    15    7   32 1
    16    8    9 1
    17    9   33 1
    18   10   11 2
    19   10   34 1
    20   11   12 1
    21   12   13 am
    22   12   35 1
    23   13   14 2
    24   13   15 1
    25   15   20 ar
    26   15   16 ar
    27   16   17 ar
    28   16   36 1
    29   17   18 ar
    30   17   37 1
    31   18   19 ar
    32   18   21 1
    33   19   20 ar
    34   19   38 1
    35   20   39 1
    36   21   25 am
    37   21   22 1
    38   22   23 1
    39   22   40 1
    40   22   41 1
    41   23   24 1
    42   23   42 1
    43   23   43 1
    44   24   25 1
    45   24   44 1
    46   24   45 1
    47   25   26 2
@<TRIPOS>MOLECULE
ZINC01226303
   45    47     0     0     0
SMALL
USER_CHARGES

@<TRIPOS>ATOM
      1 C1          8.4409   -0.4354   -0.4330 C.3       1 <0>        -0.1464
      2 C2          7.1064    0.1775   -0.0948 C.2       1 <0>        -0.0557
      3 N1          6.0536   -0.5756    0.0084 N.2       1 <0>         0.0103
      4 N2          4.7947    0.0045    0.2126 N.am      1 <0>        -0.3338
      5 C3          3.6901   -0.7677    0.2200 C.2       1 <0>         0.3649
      6 O1          3.7930   -1.9772    0.1413 O.2       1 <0>        -0.3289
      7 C4          2.3560   -0.1460    0.3235 C.ar      1 <0>        -0.1593
      8 C5          1.2168   -0.9474    0.4397 C.ar      1 <0>        -0.0376
      9 C6         -0.0264   -0.3640    0.5356 C.ar      1 <0>        -0.1892
     10 C7         -0.1497    1.0217    0.5174 C.ar      1 <0>         0.1101
     11 C8          0.9822    1.8225    0.4018 C.ar      1 <0>        -0.1755
     12 C9          2.2285    1.2458    0.3050 C.ar      1 <0>        -0.0815
     13 N3         -1.4111    1.6092    0.6094 N.am      1 <0>        -0.2813
     14 C10        -2.6746    0.8627    0.6043 C.3       1 <0>        -0.0261
     15 C11        -3.7684    1.9060    0.2858 C.3       1 <0>        -0.1773
     16 C12        -3.1105    3.2142    0.7826 C.3       1 <0>        -0.1984
     17 C13        -1.6256    2.9315    0.7201 C.2       1 <0>         0.3143
     18 O2         -0.7555    3.7754    0.7611 O.2       1 <0>        -0.3419
     19 C14         6.9962    1.6307    0.1188 C.ar      1 <0>        -0.1376
     20 C15         6.6608    2.1310    1.3798 C.ar      1 <0>        -0.0937
     21 C16         6.5645    3.4911    1.5767 C.ar      1 <0>        -0.1663
     22 C17         6.7886    4.3684    0.5221 C.ar      1 <0>         0.0960
     23 C18         7.1165    3.8815   -0.7349 C.ar      1 <0>        -0.1870
     24 C19         7.2219    2.5176   -0.9438 C.ar      1 <0>         0.1078
     25 O3          7.5433    2.0395   -2.1736 O.3       1 <0>        -0.2841
     26 O4          6.6857    5.7079    0.7229 O.3       1 <0>        -0.2878
     27 H1          8.5699   -0.4507   -1.5153 H         1 <0>         0.1048
     28 H2          9.2373    0.1556    0.0195 H         1 <0>         0.0924
     29 H3          8.4809   -1.4543   -0.0479 H         1 <0>         0.0998
     30 H4          4.7181    0.9618    0.3487 H         1 <0>         0.2144
     31 H5          1.3118   -2.0232    0.4539 H         1 <0>         0.1603
     32 H6         -0.9071   -0.9827    0.6255 H         1 <0>         0.1363
     33 H7          0.8830    2.8979    0.3880 H         1 <0>         0.1848
     34 H8          3.1067    1.8680    0.2153 H         1 <0>         0.1275
     35 H9         -2.6538    0.0912   -0.1654 H         1 <0>         0.1010
     36 H10        -2.8528    0.4160    1.5824 H         1 <0>         0.0944
     37 H11        -3.9650    1.9506   -0.7854 H         1 <0>         0.1033
     38 H12        -4.6828    1.6943    0.8402 H         1 <0>         0.1040
     39 H13        -3.3714    4.0452    0.1273 H         1 <0>         0.1233
     40 H14        -3.4134    3.4282    1.8076 H         1 <0>         0.1209
     41 H15         6.4813    1.4521    2.2003 H         1 <0>         0.1489
     42 H16         6.3100    3.8769    2.5528 H         1 <0>         0.1480
     43 H17         7.2893    4.5674   -1.5510 H         1 <0>         0.1544
     44 H18         6.7861    1.9389   -2.7666 H         1 <0>         0.2349
     45 H19         5.7986    6.0614    0.5707 H         1 <0>         0.2327
@<TRIPOS>BOND
     1    1    2 1
     2    1   27 1
     3    1   28 1
     4    1   29 1
     5    2    3 2
     6    2   19 1
     7    3    4 1
     8    4    5 am
     9    4   30 1
    10    5    6 2
    11    5    7 1
    12    7   12 ar
    13    7    8 ar
    14    8    9 ar
    15    8   31 1
    16    9   10 ar
    17    9   32 1
    18   10   11 ar
    19   10   13 1
    20   11   12 ar
    21   11   33 1
    22   12   34 1
    23   13   17 am
    24   13   14 1
    25   14   15 1
    26   14   35 1
    27   14   36 1
    28   15   16 1
    29   15   37 1
    30   15   38 1
    31   16   17 1
    32   16   39 1
    33   16   40 1
    34   17   18 2
    35   19   24 ar
    36   19   20 ar
    37   20   21 ar
    38   20   41 1
    39   21   22 ar
    40   21   42 1
    41   22   23 ar
    42   22   26 1
    43   23   24 ar
    44   23   43 1
    45   24   25 1
    46   25   44 1
    47   26   45 1
@<TRIPOS>MOLECULE
ZINC01226644
   42    44     0     0     0
SMALL
USER_CHARGES

@<TRIPOS>ATOM
      1 C1         -0.9625   13.9968   -3.2036 C.3       1 <0>        -0.0614
      2 O1         -0.8876   14.0303   -1.7770 O.3       1 <0>        -0.2153
      3 C2         -1.9549   13.5404   -1.0910 C.ar      1 <0>         0.0834
      4 C3         -3.0045   14.3866   -0.7385 C.ar      1 <0>         0.0685
      5 C4         -4.0942   13.8910   -0.0381 C.ar      1 <0>        -0.1243
      6 C5         -4.1471   12.5567    0.3075 C.ar      1 <0>        -0.1042
      7 C6         -3.0962   11.7038   -0.0377 C.ar      1 <0>         0.0038
      8 C7         -1.9981   12.2037   -0.7431 C.ar      1 <0>        -0.0766
      9 N1         -0.8842   11.3034   -1.1171 N.pl3     1 <0>         0.5661
     10 O2         -0.9102   10.7121   -2.1816 O.2       1 <0>        -0.3417
     11 O3          0.0585   11.1540   -0.3604 O.3       1 <0>        -0.3090
     12 C8         -3.1480   10.2785    0.3356 C.2       1 <0>        -0.1388
     13 N2         -2.1731    9.4864    0.0093 N.2       1 <0>         0.0328
     14 N3         -2.2223    8.1319    0.3641 N.am      1 <0>        -0.3258
     15 C9         -1.2100    7.3093    0.0252 C.2       1 <0>         0.3087
     16 O4         -0.2561    7.7417   -0.5871 O.2       1 <0>        -0.2447
     17 C10        -1.2629    5.8524    0.4069 C.3       1 <0>        -0.0208
     18 H1         -1.4017    5.7589    1.4839 H         1 <0>         0.1161
     19 C11        -2.4244    5.1674   -0.3260 C.3       1 <0>        -0.0437
     20 O5         -2.4371    3.7853    0.0479 O.3       1 <0>        -0.2036
     21 C12        -1.2410    3.1361    0.0299 C.ar      1 <0>         0.0098
     22 C13        -1.2193    1.7493    0.0173 C.ar      1 <0>        -0.1205
     23 C14        -0.0126    1.0758    0.0080 C.ar      1 <0>        -0.1289
     24 C15         1.1759    1.7821    0.0004 C.ar      1 <0>        -0.1264
     25 C16         1.1613    3.1640    0.0067 C.ar      1 <0>        -0.1148
     26 C17        -0.0464    3.8461    0.0203 C.ar      1 <0>         0.0201
     27 O6         -0.0451    5.2072    0.0190 O.3       1 <0>        -0.1669
     28 O7         -2.9601   15.7012   -1.0816 O.3       1 <0>        -0.2672
     29 H2         -1.8189   14.5833   -3.5364 H         1 <0>         0.0522
     30 H3         -0.0490   14.4160   -3.6253 H         1 <0>         0.1201
     31 H4         -1.0768   12.9654   -3.5373 H         1 <0>         0.0849
     32 H5         -4.9053   14.5504    0.2333 H         1 <0>         0.1558
     33 H6         -4.9989   12.1724    0.8490 H         1 <0>         0.1489
     34 H7         -3.9972    9.8936    0.8807 H         1 <0>         0.1277
     35 H8         -2.9851    7.7862    0.8536 H         1 <0>         0.2090
     36 H9         -2.2826    5.2555   -1.4031 H         1 <0>         0.1110
     37 H10        -3.3669    5.6343   -0.0399 H         1 <0>         0.1133
     38 H11        -2.1463    1.1952    0.0194 H         1 <0>         0.1443
     39 H12         0.0021   -0.0041    0.0020 H         1 <0>         0.1360
     40 H13         2.1174    1.2531   -0.0101 H         1 <0>         0.1375
     41 H14         2.0911    3.7134    0.0014 H         1 <0>         0.1519
     42 H15        -3.3527   15.8962   -1.9436 H         1 <0>         0.2330
@<TRIPOS>BOND
     1    1    2 1
     2    1   29 1
     3    1   30 1
     4    1   31 1
     5    2    3 1
     6    3    8 ar
     7    3    4 ar
     8    4    5 ar
     9    4   28 1
    10    5    6 ar
    11    5   32 1
    12    6    7 ar
    13    6   33 1
    14    7    8 ar
    15    7   12 1
    16    8    9 1
    17    9   10 2
    18    9   11 1
    19   12   13 2
    20   12   34 1
    21   13   14 1
    22   14   15 am
    23   14   35 1
    24   15   16 2
    25   15   17 1
    26   17   18 1
    27   17   27 1
    28   17   19 1
    29   19   20 1
    30   19   36 1
    31   19   37 1
    32   20   21 1
    33   21   26 ar
    34   21   22 ar
    35   22   23 ar
    36   22   38 1
    37   23   24 ar
    38   23   39 1
    39   24   25 ar
    40   24   40 1
    41   25   26 ar
    42   25   41 1
    43   26   27 1
    44   28   42 1
@<TRIPOS>MOLECULE
ZINC01226646
   42    44     0     0     0
SMALL
USER_CHARGES

@<TRIPOS>ATOM
      1 C1         -0.7523    8.7784    1.3303 C.3       1 <0>        -0.0614
      2 O1         -0.2002    8.4662    0.0498 O.3       1 <0>        -0.2154
      3 C2          0.9839    7.7974    0.0345 C.ar      1 <0>         0.0834
      4 C3          2.1841    8.5057    0.0268 C.ar      1 <0>         0.0684
      5 C4          3.3936    7.8273    0.0116 C.ar      1 <0>        -0.1244
      6 C5          3.4146    6.4481    0.0099 C.ar      1 <0>        -0.1042
      7 C6          2.2156    5.7316    0.0117 C.ar      1 <0>         0.0038
      8 C7          0.9969    6.4156    0.0270 C.ar      1 <0>        -0.0767
      9 N1         -0.2770    5.6617    0.0347 N.pl3     1 <0>         0.5662
     10 O2         -0.7912    5.3455    1.0926 O.2       1 <0>        -0.3400
     11 O3         -0.8110    5.3575   -1.0169 O.3       1 <0>        -0.3108
     12 C8          2.2356    4.2575    0.0036 C.2       1 <0>        -0.1389
     13 N2          1.1205    3.5933    0.0107 N.2       1 <0>         0.0328
     14 N3          1.1395    2.1925    0.0030 N.am      1 <0>        -0.3258
     15 C9         -0.0184    1.5028    0.0103 C.2       1 <0>         0.3087
     16 O4         -1.0771    2.0950    0.0185 O.2       1 <0>        -0.2448
     17 C10         0.0021   -0.0041    0.0020 C.3       1 <0>        -0.0210
     18 H1          0.6120   -0.3679    0.8289 H         1 <0>         0.1146
     19 C11         0.5794   -0.5065   -1.3282 C.3       1 <0>        -0.0432
     20 O5          0.5718   -1.9382   -1.3075 O.3       1 <0>        -0.2035
     21 C12        -0.5720   -2.5374   -0.8770 C.ar      1 <0>         0.0104
     22 C13        -0.7862   -3.8782   -1.1604 C.ar      1 <0>        -0.1205
     23 C14        -1.9398   -4.5021   -0.7247 C.ar      1 <0>        -0.1287
     24 C15        -2.8831   -3.7921   -0.0053 C.ar      1 <0>        -0.1267
     25 C16        -2.6763   -2.4557    0.2794 C.ar      1 <0>        -0.1150
     26 C17        -1.5213   -1.8231   -0.1560 C.ar      1 <0>         0.0199
     27 O6         -1.3328   -0.5057    0.1296 O.3       1 <0>        -0.1673
     28 O7          2.1691    9.8649    0.0337 O.3       1 <0>        -0.2672
     29 H2         -0.9295    7.8565    1.8842 H         1 <0>         0.0850
     30 H3         -0.0541    9.4063    1.8838 H         1 <0>         0.0522
     31 H4         -1.6946    9.3105    1.1997 H         1 <0>         0.1200
     32 H5          4.3214    8.3802    0.0060 H         1 <0>         0.1558
     33 H6          4.3580    5.9223    0.0028 H         1 <0>         0.1489
     34 H7          3.1781    3.7303   -0.0083 H         1 <0>         0.1277
     35 H8          1.9860    1.7190   -0.0077 H         1 <0>         0.2090
     36 H9         -0.0343   -0.1473   -2.1543 H         1 <0>         0.1124
     37 H10         1.6014   -0.1460   -1.4449 H         1 <0>         0.1139
     38 H11        -0.0507   -4.4352   -1.7218 H         1 <0>         0.1445
     39 H12        -2.1045   -5.5463   -0.9462 H         1 <0>         0.1360
     40 H13        -3.7831   -4.2828    0.3348 H         1 <0>         0.1373
     41 H14        -3.4146   -1.9035    0.8418 H         1 <0>         0.1515
     42 H15         2.1731   10.2538    0.9191 H         1 <0>         0.2330
@<TRIPOS>BOND
     1    1    2 1
     2    1   29 1
     3    1   30 1
     4    1   31 1
     5    2    3 1
     6    3    8 ar
     7    3    4 ar
     8    4    5 ar
     9    4   28 1
    10    5    6 ar
    11    5   32 1
    12    6    7 ar
    13    6   33 1
    14    7    8 ar
    15    7   12 1
    16    8    9 1
    17    9   10 2
    18    9   11 1
    19   12   13 2
    20   12   34 1
    21   13   14 1
    22   14   15 am
    23   14   35 1
    24   15   16 2
    25   15   17 1
    26   17   18 1
    27   17   27 1
    28   17   19 1
    29   19   20 1
    30   19   36 1
    31   19   37 1
    32   20   21 1
    33   21   26 ar
    34   21   22 ar
    35   22   23 ar
    36   22   38 1
    37   23   24 ar
    38   23   39 1
    39   24   25 ar
    40   24   40 1
    41   25   26 ar
    42   25   41 1
    43   26   27 1
    44   28   42 1
@<TRIPOS>MOLECULE
ZINC01226928
   45    48     0     0     0
SMALL
USER_CHARGES

@<TRIPOS>ATOM
      1 C1          3.7112   -0.7071   -0.0373 C.3       1 <0>        -0.1831
      2 C2          2.3960    0.0285   -0.0212 C.ar      1 <0>        -0.0220
      3 C3          1.2084   -0.6789   -0.0132 C.ar      1 <0>        -0.1514
      4 C4          0.0021   -0.0041    0.0020 C.ar      1 <0>        -0.0137
      5 C5         -0.0167    1.3781    0.0096 C.ar      1 <0>        -0.7462
      6 C6          1.1709    2.0855    0.0021 C.ar      1 <0>        -0.0340
      7 C7          2.3773    1.4107   -0.0150 C.ar      1 <0>        -0.1533
      8 S1         -1.5544    2.2383    0.0216 S.o2      1 <0>         2.7791
      9 O1         -1.3035    3.5264   -0.5234 O.2       1 <0>        -0.9428
     10 O2         -2.5194    1.3527   -0.5295 O.2       1 <0>        -0.8806
     11 C8         -2.0011    2.4835    1.7083 C.2       1 <0>        -0.9027
     12 C9         -2.7761    1.6024    2.4995 C.ar      1 <0>         0.0626
     13 C10        -2.8748    2.2309    3.8230 C.ar      1 <0>         0.0411
     14 N1         -3.5436    1.6294    4.7809 N.ar      1 <0>        -0.1466
     15 C11        -4.1385    0.4533    4.5417 C.ar      1 <0>        -0.0139
     16 C12        -4.8607   -0.1953    5.5603 C.ar      1 <0>        -0.0978
     17 C13        -5.4553   -1.3933    5.3115 C.ar      1 <0>        -0.1230
     18 C14        -5.3604   -1.9942    4.0572 C.ar      1 <0>        -0.1263
     19 C15        -4.6708   -1.3984    3.0477 C.ar      1 <0>        -0.0894
     20 C16        -4.0419   -0.1575    3.2662 C.ar      1 <0>        -0.0185
     21 N2         -3.3618    0.4363    2.2794 N.ar      1 <0>        -0.1016
     22 N3         -2.1800    3.4187    3.7386 N.pl3     1 <0>        -0.1886
     23 C17        -1.6678    3.5503    2.4722 C.2       1 <0>         0.3192
     24 N4         -0.9141    4.6251    2.0363 N.pl3     1 <0>        -0.3883
     25 C18        -2.0153    4.3859    4.8266 C.3       1 <0>        -0.0125
     26 C19        -3.1628    5.3971    4.7881 C.3       1 <0>        -0.0253
     27 O3         -3.0021    6.3405    5.8493 O.3       1 <0>        -0.3542
     28 H1          4.0184   -0.8797   -1.0688 H         1 <0>         0.0935
     29 H2          4.4677   -0.1102    0.4721 H         1 <0>         0.0846
     30 H3          3.5987   -1.6636    0.4732 H         1 <0>         0.0867
     31 H4          1.2231   -1.7588   -0.0184 H         1 <0>         0.1375
     32 H5         -0.9258   -0.5567    0.0083 H         1 <0>         0.1608
     33 H6          1.1563    3.1654    0.0077 H         1 <0>         0.1358
     34 H7          3.3051    1.9634   -0.0216 H         1 <0>         0.1336
     35 H8         -4.9434    0.2573    6.5374 H         1 <0>         0.1455
     36 H9         -6.0086   -1.8862    6.0973 H         1 <0>         0.1332
     37 H10        -5.8408   -2.9460    3.8849 H         1 <0>         0.1342
     38 H11        -4.6054   -1.8758    2.0811 H         1 <0>         0.1529
     39 H12        -0.5848    4.6484    1.1242 H         1 <0>         0.2756
     40 H13        -0.7149    5.3554    2.6428 H         1 <0>         0.2288
     41 H14        -2.0243    3.8624    5.7826 H         1 <0>         0.1373
     42 H15        -1.0662    4.9086    4.7075 H         1 <0>         0.1004
     43 H16        -3.1538    5.9207    3.8321 H         1 <0>         0.0638
     44 H17        -4.1119    4.8744    4.9072 H         1 <0>         0.0860
     45 H18        -3.6958    7.0133    5.8859 H         1 <0>         0.2235
@<TRIPOS>BOND
     1    1    2 1
     2    1   28 1
     3    1   29 1
     4    1   30 1
     5    2    7 ar
     6    2    3 ar
     7    3    4 ar
     8    3   31 1
     9    4    5 ar
    10    4   32 1
    11    5    6 ar
    12    5    8 1
    13    6    7 ar
    14    6   33 1
    15    7   34 1
    16    8    9 2
    17    8   10 2
    18    8   11 1
    19   11   23 2
    20   11   12 1
    21   12   21 ar
    22   12   13 ar
    23   13   14 ar
    24   13   22 1
    25   14   15 ar
    26   15   20 ar
    27   15   16 ar
    28   16   17 ar
    29   16   35 1
    30   17   18 ar
    31   17   36 1
    32   18   19 ar
    33   18   37 1
    34   19   20 ar
    35   19   38 1
    36   20   21 ar
    37   22   23 1
    38   22   25 1
    39   23   24 1
    40   24   39 1
    41   24   40 1
    42   25   26 1
    43   25   41 1
    44   25   42 1
    45   26   27 1
    46   26   43 1
    47   26   44 1
    48   27   45 1
@<TRIPOS>MOLECULE
ZINC01232417
   42    44     0     0     0
SMALL
USER_CHARGES

@<TRIPOS>ATOM
      1 C1          1.2289   -2.1857   -0.0219 C.3       1 <0>        -0.1837
      2 C2          1.2084   -0.6789   -0.0136 C.ar      1 <0>        -0.0214
      3 C3          0.0021   -0.0041    0.0020 C.ar      1 <0>        -0.1558
      4 C4         -0.0167    1.3781    0.0096 C.ar      1 <0>        -0.0255
      5 C5          1.1709    2.0855    0.0021 C.ar      1 <0>        -0.7601
      6 C6          2.3773    1.4107   -0.0136 C.ar      1 <0>        -0.0128
      7 C7          2.3961    0.0285   -0.0212 C.ar      1 <0>        -0.1591
      8 S1          1.1470    3.8473    0.0112 S.o2      1 <0>         2.7804
      9 O1          2.3816    4.2732   -0.5490 O.2       1 <0>        -0.8901
     10 O2         -0.1088    4.2393   -0.5259 O.2       1 <0>        -0.9136
     11 N1          1.1552    4.3289    1.5957 N.pl3     1 <0>        -0.8083
     12 N2          2.2188    3.9665    2.4325 N.2       1 <0>        -0.0024
     13 C8          2.2253    4.3441    3.6748 C.2       1 <0>        -0.0150
     14 C9          1.0886    5.1721    4.2166 C.3       1 <0>        -0.2037
     15 C10         3.3428    3.9634    4.5540 C.2       1 <0>        -0.1939
     16 C11         3.2909    2.7803    5.2873 C.2       1 <0>         0.1872
     17 C12         4.4391    2.4529    6.1422 C.ar      1 <0>        -0.1717
     18 C13         4.4572    1.2796    6.9021 C.ar      1 <0>        -0.0608
     19 C14         5.5359    1.0014    7.6943 C.ar      1 <0>        -0.1580
     20 C15         6.6119    1.8752    7.7486 C.ar      1 <0>        -0.0716
     21 C16         6.6123    3.0380    7.0065 C.ar      1 <0>        -0.1477
     22 C17         5.5266    3.3411    6.1943 C.ar      1 <0>         0.1347
     23 O3          5.5137    4.4757    5.4627 O.3       1 <0>        -0.1675
     24 C18         4.4819    4.7994    4.6688 C.2       1 <0>         0.3707
     25 O4          4.5247    5.8363    4.0319 O.2       1 <0>        -0.2825
     26 O5          2.2201    1.9578    5.2110 O.3       1 <0>        -0.2812
     27 H1          1.2236   -2.5435   -1.0515 H         1 <0>         0.0958
     28 H2          2.1288   -2.5396    0.4811 H         1 <0>         0.0846
     29 H3          0.3491   -2.5639    0.4987 H         1 <0>         0.0853
     30 H4         -0.9258   -0.5567    0.0079 H         1 <0>         0.1363
     31 H5         -0.9592    1.9054    0.0170 H         1 <0>         0.1480
     32 H6          3.3052    1.9634   -0.0192 H         1 <0>         0.1580
     33 H7          3.3386   -0.4987   -0.0327 H         1 <0>         0.1365
     34 H8          0.4236    4.8618    1.9444 H         1 <0>         0.2311
     35 H9          0.3148    4.5133    4.6107 H         1 <0>         0.0993
     36 H10         1.4571    5.8175    5.0140 H         1 <0>         0.1048
     37 H11         0.6718    5.7845    3.4170 H         1 <0>         0.0899
     38 H12         3.6224    0.5955    6.8631 H         1 <0>         0.1468
     39 H13         5.5506    0.0952    8.2817 H         1 <0>         0.1407
     40 H14         7.4580    1.6426    8.3782 H         1 <0>         0.1434
     41 H15         7.4554    3.7112    7.0562 H         1 <0>         0.1578
     42 H16         2.2885    1.2864    4.5184 H         1 <0>         0.2550
@<TRIPOS>BOND
     1    1    2 1
     2    1   27 1
     3    1   28 1
     4    1   29 1
     5    2    7 ar
     6    2    3 ar
     7    3    4 ar
     8    3   30 1
     9    4    5 ar
    10    4   31 1
    11    5    6 ar
    12    5    8 1
    13    6    7 ar
    14    6   32 1
    15    7   33 1
    16    8    9 2
    17    8   10 2
    18    8   11 1
    19   11   12 1
    20   11   34 1
    21   12   13 2
    22   13   14 1
    23   13   15 1
    24   14   35 1
    25   14   36 1
    26   14   37 1
    27   15   24 1
    28   15   16 2
    29   16   17 1
    30   16   26 1
    31   17   22 ar
    32   17   18 ar
    33   18   19 ar
    34   18   38 1
    35   19   20 ar
    36   19   39 1
    37   20   21 ar
    38   20   40 1
    39   21   22 ar
    40   21   41 1
    41   22   23 1
    42   23   24 1
    43   24   25 2
    44   26   42 1
@<TRIPOS>MOLECULE
ZINC01233421
   40    41     0     0     0
SMALL
USER_CHARGES

@<TRIPOS>ATOM
      1 C1         -5.8816   -4.9980    0.0468 C.3       1 <0>        -0.2391
      2 C2         -4.6466   -4.1595   -0.1597 C.2       1 <0>         0.3003
      3 O1         -3.7148   -4.5996   -0.7992 O.2       1 <0>        -0.3465
      4 N1         -4.5776   -2.9205    0.3662 N.am      1 <0>        -0.3304
      5 C3         -3.3968   -2.1854    0.2664 C.ar      1 <0>         0.0898
      6 C4         -2.1684   -2.8381    0.2952 C.ar      1 <0>        -0.1406
      7 C5         -1.0008   -2.1155    0.1960 C.ar      1 <0>        -0.0451
      8 C6         -1.0504   -0.7248    0.0666 C.ar      1 <0>        -0.1507
      9 C7         -2.2859   -0.0718    0.0443 C.ar      1 <0>        -0.0856
     10 C8         -3.4498   -0.8011    0.1377 C.ar      1 <0>        -0.1746
     11 C9          0.1991    0.0530   -0.0401 C.2       1 <0>         0.3512
     12 O2          1.2735   -0.5160   -0.0155 O.2       1 <0>        -0.3577
     13 N2          0.1496    1.3941   -0.1647 N.am      1 <0>        -0.3244
     14 C10         1.3343    2.1399   -0.1807 C.ar      1 <0>         0.0444
     15 C11         1.3708    3.3981    0.4063 C.ar      1 <0>        -0.1441
     16 C12         2.5408    4.1306    0.3964 C.ar      1 <0>        -0.1116
     17 C13         3.6778    3.6148   -0.2119 C.ar      1 <0>         0.0461
     18 C14         3.6396    2.3594   -0.8043 C.ar      1 <0>        -0.1467
     19 C15         2.4715    1.6240   -0.7886 C.ar      1 <0>        -0.1076
     20 N3          4.8633    4.3608   -0.2274 N.am      1 <0>        -0.3281
     21 C16         5.1621    5.1729    0.8059 C.2       1 <0>         0.2992
     22 O3          4.4525    5.1889    1.7895 O.2       1 <0>        -0.3545
     23 C17         6.3779    6.0608    0.7393 C.3       1 <0>        -0.2389
     24 H1         -6.5865   -4.8124   -0.7636 H         1 <0>         0.1081
     25 H2         -5.6073   -6.0529    0.0553 H         1 <0>         0.1201
     26 H3         -6.3443   -4.7353    0.9981 H         1 <0>         0.0852
     27 H4         -5.3493   -2.5401    0.8141 H         1 <0>         0.2339
     28 H5         -2.1308   -3.9128    0.3952 H         1 <0>         0.1668
     29 H6         -0.0476   -2.6228    0.2177 H         1 <0>         0.1621
     30 H7         -2.3276    1.0032   -0.0507 H         1 <0>         0.1257
     31 H8         -4.4050   -0.2976    0.1153 H         1 <0>         0.1324
     32 H9         -0.7067    1.8422   -0.2474 H         1 <0>         0.2315
     33 H10         0.4853    3.8012    0.8751 H         1 <0>         0.1320
     34 H11         2.5708    5.1066    0.8577 H         1 <0>         0.1608
     35 H12         4.5240    1.9582   -1.2769 H         1 <0>         0.1328
     36 H13         2.4421    0.6473   -1.2487 H         1 <0>         0.1670
     37 H14         5.4692    4.2930   -0.9819 H         1 <0>         0.2308
     38 H15         6.1033    7.0205    0.3015 H         1 <0>         0.1054
     39 H16         6.7682    6.2185    1.7448 H         1 <0>         0.1176
     40 H17         7.1415    5.5857    0.1235 H         1 <0>         0.0829
@<TRIPOS>BOND
     1    1    2 1
     2    1   24 1
     3    1   25 1
     4    1   26 1
     5    2    3 2
     6    2    4 am
     7    4    5 1
     8    4   27 1
     9    5   10 ar
    10    5    6 ar
    11    6    7 ar
    12    6   28 1
    13    7    8 ar
    14    7   29 1
    15    8    9 ar
    16    8   11 1
    17    9   10 ar
    18    9   30 1
    19   10   31 1
    20   11   12 2
    21   11   13 am
    22   13   14 1
    23   13   32 1
    24   14   19 ar
    25   14   15 ar
    26   15   16 ar
    27   15   33 1
    28   16   17 ar
    29   16   34 1
    30   17   18 ar
    31   17   20 1
    32   18   19 ar
    33   18   35 1
    34   19   36 1
    35   20   21 am
    36   20   37 1
    37   21   22 2
    38   21   23 1
    39   23   38 1
    40   23   39 1
    41   23   40 1
@<TRIPOS>MOLECULE
ZINC01234546
   47    48     0     0     0
SMALL
USER_CHARGES

@<TRIPOS>ATOM
      1 C1         -5.9828   -6.0295    1.3610 C.3       1 <0>        -0.2290
      2 C2         -5.5282   -4.5731    1.4755 C.3       1 <0>        -0.0155
      3 N1         -4.0680   -4.5081    1.3768 N.pl3     1 <0>        -0.8355
      4 C3         -3.2401   -4.8283    2.5422 C.3       1 <0>        -0.0119
      5 C4         -3.0897   -3.5833    3.4186 C.3       1 <0>        -0.2386
      6 S1         -3.3532   -4.0726   -0.0521 S.o2      1 <0>         2.7680
      7 O1         -4.3534   -4.1801   -1.0558 O.2       1 <0>        -0.9163
      8 O2         -2.1233   -4.7806   -0.1233 O.2       1 <0>        -0.9082
      9 C5         -2.9439   -2.3631    0.0699 C.ar      1 <0>        -0.7698
     10 C6         -1.6214   -1.9697    0.0620 C.ar      1 <0>         0.0374
     11 C7         -1.2990   -0.6152    0.1582 C.ar      1 <0>        -0.1603
     12 C8         -2.3183    0.3326    0.2677 C.ar      1 <0>        -0.0520
     13 C9         -3.6364   -0.0738    0.2686 C.ar      1 <0>        -0.1600
     14 C10        -3.9492   -1.4184    0.1728 C.ar      1 <0>         0.0542
     15 C11        -5.3914   -1.8554    0.1803 C.3       1 <0>        -0.2392
     16 C12         0.1156   -0.1865    0.1504 C.2       1 <0>         0.3471
     17 O3          1.0011   -1.0144    0.0600 O.2       1 <0>        -0.3405
     18 N2          0.4236    1.1223    0.2435 N.am      1 <0>        -0.3217
     19 C13         1.7604    1.5206    0.3428 C.ar      1 <0>         0.0774
     20 C14         2.1464    2.7787   -0.1034 C.ar      1 <0>        -0.1775
     21 C15         3.4668    3.1719   -0.0053 C.ar      1 <0>        -0.0959
     22 C16         4.4071    2.3161    0.5366 C.ar      1 <0>        -0.1735
     23 C17         4.0273    1.0587    0.9843 C.ar      1 <0>         0.0908
     24 C18         2.7022    0.6622    0.8924 C.ar      1 <0>        -0.1615
     25 O4          4.9529    0.2187    1.5176 O.3       1 <0>        -0.2860
     26 H1         -7.0692   -6.0779    1.4344 H         1 <0>         0.0813
     27 H2         -5.6651   -6.4348    0.4002 H         1 <0>         0.0910
     28 H3         -5.5378   -6.6134    2.1666 H         1 <0>         0.0778
     29 H4         -5.8458   -4.1678    2.4362 H         1 <0>         0.0827
     30 H5         -5.9732   -3.9891    0.6698 H         1 <0>         0.1092
     31 H6         -3.7149   -5.6227    3.1180 H         1 <0>         0.0955
     32 H7         -2.2563   -5.1592    2.2092 H         1 <0>         0.1159
     33 H8         -2.6148   -2.7889    2.8428 H         1 <0>         0.0789
     34 H9         -4.0734   -3.2524    3.7517 H         1 <0>         0.0766
     35 H10        -2.4737   -3.8215    4.2857 H         1 <0>         0.0859
     36 H11        -0.8375   -2.7083   -0.0181 H         1 <0>         0.1834
     37 H12        -2.0753    1.3819    0.3470 H         1 <0>         0.1272
     38 H13        -4.4260    0.6587    0.3491 H         1 <0>         0.1402
     39 H14        -5.6782   -2.1447    1.1913 H         1 <0>         0.0970
     40 H15        -6.0223   -1.0321   -0.1549 H         1 <0>         0.0979
     41 H16        -5.5169   -2.7056   -0.4902 H         1 <0>         0.1389
     42 H17        -0.2817    1.7882    0.2375 H         1 <0>         0.2324
     43 H18         1.4135    3.4494   -0.5269 H         1 <0>         0.1285
     44 H19         3.7649    4.1502   -0.3523 H         1 <0>         0.1339
     45 H20         5.4388    2.6264    0.6120 H         1 <0>         0.1396
     46 H21         2.4039   -0.3143    1.2444 H         1 <0>         0.1781
     47 H22         5.0614    0.3093    2.4742 H         1 <0>         0.2263
@<TRIPOS>BOND
     1    1    2 1
     2    1   26 1
     3    1   27 1
     4    1   28 1
     5    2    3 1
     6    2   29 1
     7    2   30 1
     8    3    4 1
     9    3    6 1
    10    4    5 1
    11    4   31 1
    12    4   32 1
    13    5   33 1
    14    5   34 1
    15    5   35 1
    16    6    7 2
    17    6    8 2
    18    6    9 1
    19    9   14 ar
    20    9   10 ar
    21   10   11 ar
    22   10   36 1
    23   11   12 ar
    24   11   16 1
    25   12   13 ar
    26   12   37 1
    27   13   14 ar
    28   13   38 1
    29   14   15 1
    30   15   39 1
    31   15   40 1
    32   15   41 1
    33   16   17 2
    34   16   18 am
    35   18   19 1
    36   18   42 1
    37   19   24 ar
    38   19   20 ar
    39   20   21 ar
    40   20   43 1
    41   21   22 ar
    42   21   44 1
    43   22   23 ar
    44   22   45 1
    45   23   24 ar
    46   23   25 1
    47   24   46 1
    48   25   47 1
@<TRIPOS>MOLECULE
ZINC01238258
   47    49     0     0     0
SMALL
USER_CHARGES

@<TRIPOS>ATOM
      1 C1          1.0271   -1.3881  -10.7306 C.ar      1 <0>        -0.1348
      2 C2          0.5484   -0.9197   -9.5222 C.ar      1 <0>        -0.0947
      3 C3         -0.7765   -0.5011   -9.4082 C.ar      1 <0>        -0.0418
      4 C4         -1.6156   -0.5457  -10.5167 C.ar      1 <0>        -0.0577
      5 C5         -1.1270   -1.0144  -11.7349 C.ar      1 <0>        -0.1277
      6 C6          0.2007   -1.4359  -11.8350 C.ar      1 <0>        -0.1055
      7 C7         -2.0119   -1.0648  -12.9184 C.2       1 <0>         0.3504
      8 O1         -3.1671   -0.6971  -12.8296 O.2       1 <0>        -0.3694
      9 N1         -1.5377   -1.5183  -14.0956 N.am      1 <0>        -0.4280
     10 C8         -1.2892   -0.0029   -8.1076 C.ar      1 <0>        -0.0276
     11 C9         -2.6118    0.4217   -7.9942 C.ar      1 <0>        -0.1147
     12 C10        -3.0862    0.8851   -6.7837 C.ar      1 <0>        -0.1158
     13 C11        -2.2542    0.9243   -5.6802 C.ar      1 <0>        -0.1240
     14 C12        -0.9344    0.5087   -5.7863 C.ar      1 <0>         0.0815
     15 C13        -0.4501    0.0422   -6.9975 C.ar      1 <0>        -0.1146
     16 O2         -0.1182    0.5542   -4.7001 O.3       1 <0>        -0.2194
     17 C14         0.7740    1.5617   -4.6476 C.2       1 <0>         0.3964
     18 O3          0.8842    2.3254   -5.5863 O.2       1 <0>        -0.4031
     19 N2          1.5447    1.7229   -3.5537 N.am      1 <0>        -0.3721
     20 C15         2.5153    2.8188   -3.4965 C.3       1 <0>         0.0577
     21 C16         2.7923    3.1790   -2.0356 C.3       1 <0>        -0.1723
     22 C17         3.8059    4.3236   -1.9759 C.3       1 <0>        -0.1539
     23 C18         5.1085    3.8869   -2.6493 C.3       1 <0>        -0.1630
     24 C19         4.8315    3.5267   -4.1102 C.3       1 <0>        -0.1568
     25 C20         3.8179    2.3821   -4.1700 C.3       1 <0>        -0.1764
     26 H1          2.0533   -1.7147  -10.8124 H         1 <0>         0.1340
     27 H2          1.2013   -0.8813   -8.6627 H         1 <0>         0.1387
     28 H3         -2.6416   -0.2189  -10.4336 H         1 <0>         0.1603
     29 H4          0.5813   -1.7994  -12.7780 H         1 <0>         0.1238
     30 H5         -0.6158   -1.8116  -14.1665 H         1 <0>         0.2160
     31 H6         -2.1182   -1.5513  -14.8720 H         1 <0>         0.2317
     32 H7         -3.2655    0.3877   -8.8532 H         1 <0>         0.1420
     33 H8         -4.1115    1.2134   -6.6971 H         1 <0>         0.1378
     34 H9         -2.6313    1.2836   -4.7341 H         1 <0>         0.1406
     35 H10         0.5755   -0.2860   -7.0803 H         1 <0>         0.1437
     36 H11         1.4568    1.1133   -2.8044 H         1 <0>         0.2304
     37 H12         2.1121    3.6887   -4.0151 H         1 <0>         0.1244
     38 H13         1.8643    3.4901   -1.5558 H         1 <0>         0.0884
     39 H14         3.1955    2.3092   -1.5171 H         1 <0>         0.0840
     40 H15         3.4027    5.1934   -2.4944 H         1 <0>         0.0869
     41 H16         4.0032    4.5802   -0.9350 H         1 <0>         0.0847
     42 H17         5.5117    3.0170   -2.1308 H         1 <0>         0.0818
     43 H18         5.8306    4.7023   -2.6067 H         1 <0>         0.0831
     44 H19         5.7595    3.2156   -4.5900 H         1 <0>         0.0844
     45 H20         4.4283    4.3965   -4.6288 H         1 <0>         0.0877
     46 H21         4.2211    1.5123   -3.6514 H         1 <0>         0.0816
     47 H22         3.6205    2.1255   -5.2108 H         1 <0>         0.1012
@<TRIPOS>BOND
     1    1    6 ar
     2    1    2 ar
     3    1   26 1
     4    2    3 ar
     5    2   27 1
     6    3    4 ar
     7    3   10 1
     8    4    5 ar
     9    4   28 1
    10    5    6 ar
    11    5    7 1
    12    6   29 1
    13    7    8 2
    14    7    9 am
    15    9   30 1
    16    9   31 1
    17   10   15 ar
    18   10   11 ar
    19   11   12 ar
    20   11   32 1
    21   12   13 ar
    22   12   33 1
    23   13   14 ar
    24   13   34 1
    25   14   15 ar
    26   14   16 1
    27   15   35 1
    28   16   17 1
    29   17   18 2
    30   17   19 am
    31   19   20 1
    32   19   36 1
    33   20   25 1
    34   20   21 1
    35   20   37 1
    36   21   22 1
    37   21   38 1
    38   21   39 1
    39   22   23 1
    40   22   40 1
    41   22   41 1
    42   23   24 1
    43   23   42 1
    44   23   43 1
    45   24   25 1
    46   24   44 1
    47   24   45 1
    48   25   46 1
    49   25   47 1
@<TRIPOS>MOLECULE
ZINC01248309
   42    45     0     0     0
SMALL
USER_CHARGES

@<TRIPOS>ATOM
      1 C1         -0.5496    0.8336    6.2665 C.ar      1 <0>        -0.0590
      2 C2         -1.8394    1.2938    6.4603 C.ar      1 <0>        -0.1719
      3 C3         -2.4272    2.1263    5.5260 C.ar      1 <0>        -0.0150
      4 C4         -1.7275    2.5014    4.3957 C.ar      1 <0>        -0.7962
      5 C5         -0.4322    2.0414    4.1983 C.ar      1 <0>         0.1631
      6 C6          0.1535    1.2005    5.1361 C.ar      1 <0>        -0.1495
      7 N1          0.2792    2.4194    3.0549 N.am      1 <0>        -0.3186
      8 C7          1.1315    1.5518    2.4740 C.2       1 <0>         0.4085
      9 O1          1.3443    0.4703    2.9898 O.2       1 <0>        -0.3479
     10 C8          1.8024    1.9111    1.2202 C.2       1 <0>        -0.3595
     11 C9          3.0664    2.5696    1.2597 C.2       1 <0>         0.3314
     12 O2          3.6088    2.8444    2.3162 O.2       1 <0>        -0.3226
     13 C10         3.6848    2.9084   -0.0349 C.ar      1 <0>        -0.1650
     14 C11         4.9139    3.5562   -0.1525 C.ar      1 <0>        -0.0380
     15 C12         5.4085    3.8288   -1.4124 C.ar      1 <0>        -0.1649
     16 C13         4.7058    3.4713   -2.5577 C.ar      1 <0>        -0.0576
     17 C14         3.4909    2.8306   -2.4504 C.ar      1 <0>        -0.1353
     18 C15         2.9938    2.5563   -1.1945 C.ar      1 <0>         0.0693
     19 N2          1.7838    1.9188   -1.1832 N.pl3     1 <0>        -0.2085
     20 C16         1.2013    1.6001    0.0029 C.2       1 <0>         0.3037
     21 O3          0.0094    0.9723    0.0010 O.3       1 <0>        -0.2752
     22 C17         1.3579    1.7083   -2.5764 C.3       1 <0>        -0.0140
     23 C18         2.4821    2.3091   -3.4457 C.3       1 <0>        -0.1238
     24 S1         -2.4777    3.5620    3.2053 S.o2      1 <0>         2.7581
     25 O4         -2.2724    2.9572    1.9359 O.2       1 <0>        -0.9128
     26 O5         -3.7727    3.8752    3.6994 O.2       1 <0>        -0.9162
     27 N3         -1.6182    4.9774    3.1998 N.pl3     1 <0>        -0.9371
     28 H1         -0.0934    0.1831    6.9980 H         1 <0>         0.1373
     29 H2         -2.3886    1.0020    7.3432 H         1 <0>         0.1358
     30 H3         -3.4348    2.4835    5.6799 H         1 <0>         0.1568
     31 H4          1.1591    0.8375    4.9833 H         1 <0>         0.1775
     32 H5          0.1591    3.3059    2.6800 H         1 <0>         0.2402
     33 H6          5.4706    3.8400    0.7283 H         1 <0>         0.1604
     34 H7          6.3599    4.3303   -1.5103 H         1 <0>         0.1392
     35 H8          5.1131    3.6955   -3.5324 H         1 <0>         0.1364
     36 H9          0.0226    0.0054   -0.0073 H         1 <0>         0.2676
     37 H10         1.2511    0.6431   -2.7813 H         1 <0>         0.0992
     38 H11         0.4174    2.2258   -2.7656 H         1 <0>         0.1121
     39 H12         2.9302    1.5391   -4.0737 H         1 <0>         0.1077
     40 H13         2.0950    3.1223   -4.0597 H         1 <0>         0.1093
     41 H14        -1.5546    5.5030    2.3870 H         1 <0>         0.2417
     42 H15        -1.1783    5.2808    4.0093 H         1 <0>         0.2335
@<TRIPOS>BOND
     1    1    6 ar
     2    1    2 ar
     3    1   28 1
     4    2    3 ar
     5    2   29 1
     6    3    4 ar
     7    3   30 1
     8    4    5 ar
     9    4   24 1
    10    5    6 ar
    11    5    7 1
    12    6   31 1
    13    7    8 am
    14    7   32 1
    15    8    9 2
    16    8   10 1
    17   10   20 2
    18   10   11 1
    19   11   12 2
    20   11   13 1
    21   13   18 ar
    22   13   14 ar
    23   14   15 ar
    24   14   33 1
    25   15   16 ar
    26   15   34 1
    27   16   17 ar
    28   16   35 1
    29   17   23 1
    30   17   18 ar
    31   18   19 1
    32   19   20 1
    33   19   22 1
    34   20   21 1
    35   21   36 1
    36   22   23 1
    37   22   37 1
    38   22   38 1
    39   23   39 1
    40   23   40 1
    41   24   25 2
    42   24   26 2
    43   24   27 1
    44   27   41 1
    45   27   42 1
@<TRIPOS>MOLECULE
ZINC01250699
   44    47     0     0     0
SMALL
USER_CHARGES

@<TRIPOS>ATOM
      1 C1        -11.7114    5.2108   -0.6097 C.3       1 <0>        -0.0674
      2 O1        -11.1152    3.9265   -0.4168 O.3       1 <0>        -0.1953
      3 C2         -9.7697    3.8935   -0.2214 C.ar      1 <0>         0.0796
      4 C3         -9.0433    5.0695   -0.2160 C.ar      1 <0>        -0.1901
      5 C4         -7.6610    5.0319   -0.0150 C.ar      1 <0>        -0.0646
      6 C5         -7.0192    3.8052    0.1742 C.ar      1 <0>        -0.1859
      7 C6         -7.7515    2.6368    0.1732 C.ar      1 <0>        -0.1189
      8 C7         -9.1239    2.6746   -0.0264 C.ar      1 <0>         0.0568
      9 O2         -9.8402    1.5193   -0.0321 O.3       1 <0>        -0.2721
     10 C8         -6.8809    6.2827   -0.0087 C.2       1 <0>        -0.1119
     11 N1         -5.5860    6.2405   -0.0895 N.2       1 <0>         0.0274
     12 N2         -4.9540    5.1104   -0.6246 N.am      1 <0>        -0.3449
     13 C9         -3.6101    5.0129   -0.5960 C.2       1 <0>         0.3794
     14 O3         -2.9460    5.9061   -0.1057 O.2       1 <0>        -0.2942
     15 C10        -2.9438    3.8216   -1.1600 C.2       1 <0>        -0.1853
     16 C11        -1.5533    3.5787   -1.1952 C.2       1 <0>        -0.1488
     17 C12        -1.4113    2.3646   -1.8070 C.2       1 <0>        -0.0644
     18 N3         -2.6665    1.9277   -2.1125 N.2       1 <0>        -0.1014
     19 H1         -4.5259    2.6928   -1.8424 H         1 <0>         0.2805
     20 N4         -3.5372    2.7901   -1.7276 N.pl3     1 <0>        -0.0548
     21 C13        -0.1400    1.6598   -2.0845 C.ar      1 <0>         0.0004
     22 C14         1.0754    2.2430   -1.7257 C.ar      1 <0>        -0.1089
     23 C15         2.2599    1.5874   -1.9900 C.ar      1 <0>        -0.1140
     24 C16         2.2476    0.3480   -2.6126 C.ar      1 <0>         0.0088
     25 C17         1.0362   -0.2399   -2.9735 C.ar      1 <0>         0.0001
     26 C18        -0.1540    0.4133   -2.7106 C.ar      1 <0>        -0.0897
     27 O4          1.2945   -1.4438   -3.5634 O.3       1 <0>        -0.2068
     28 C19         2.6463   -1.7716   -3.1919 C.3       1 <0>         0.1068
     29 O5          3.2631   -0.4885   -2.9772 O.3       1 <0>        -0.2073
     30 H2        -11.2761    5.6850   -1.4893 H         1 <0>         0.0670
     31 H3        -12.7857    5.0946   -0.7538 H         1 <0>         0.1159
     32 H4        -11.5274    5.8321    0.2667 H         1 <0>         0.0723
     33 H5         -9.5428    6.0151   -0.3663 H         1 <0>         0.1458
     34 H6         -5.9503    3.7727    0.3258 H         1 <0>         0.1513
     35 H7         -7.2550    1.6897    0.3241 H         1 <0>         0.1497
     36 H8         -9.9224    1.1118   -0.9052 H         1 <0>         0.2290
     37 H9         -7.3867    7.2342    0.0633 H         1 <0>         0.1875
     38 H10        -5.4837    4.3980   -1.0156 H         1 <0>         0.2186
     39 H11        -0.7680    4.2171   -0.8184 H         1 <0>         0.1804
     40 H12         1.0890    3.2081   -1.2411 H         1 <0>         0.1446
     41 H13         3.1998    2.0406   -1.7115 H         1 <0>         0.1464
     42 H14        -1.0932   -0.0409   -2.9899 H         1 <0>         0.1591
     43 H15         2.6593   -2.3609   -2.2750 H         1 <0>         0.0886
     44 H16         3.1464   -2.3066   -3.9993 H         1 <0>         0.1306
@<TRIPOS>BOND
     1    1    2 1
     2    1   30 1
     3    1   31 1
     4    1   32 1
     5    2    3 1
     6    3    8 ar
     7    3    4 ar
     8    4    5 ar
     9    4   33 1
    10    5    6 ar
    11    5   10 1
    12    6    7 ar
    13    6   34 1
    14    7    8 ar
    15    7   35 1
    16    8    9 1
    17    9   36 1
    18   10   11 2
    19   10   37 1
    20   11   12 1
    21   12   13 am
    22   12   38 1
    23   13   14 2
    24   13   15 1
    25   15   16 2
    26   15   20 1
    27   16   39 1
    28   16   17 1
    29   17   21 1
    30   17   18 2
    31   18   20 1
    32   19   20 1
    33   21   26 ar
    34   21   22 ar
    35   22   23 ar
    36   22   40 1
    37   23   24 ar
    38   23   41 1
    39   24   29 1
    40   24   25 ar
    41   25   26 ar
    42   25   27 1
    43   26   42 1
    44   27   28 1
    45   28   29 1
    46   28   43 1
    47   28   44 1
@<TRIPOS>MOLECULE
ZINC01257009
   42    43     0     0     0
SMALL
USER_CHARGES

@<TRIPOS>ATOM
      1 C1          1.3565   -0.9598   -0.7277 C.3       1 <0>        -0.2387
      2 C2          0.0404   -0.2373   -0.5980 C.2       1 <0>         0.3016
      3 O1         -0.9725   -0.7384   -1.0383 O.2       1 <0>        -0.3467
      4 N1         -0.0111    0.9658    0.0074 N.am      1 <0>        -0.3335
      5 C3         -1.2149    1.6779    0.0476 C.ar      1 <0>         0.1149
      6 C4         -1.2062    3.0644   -0.0300 C.ar      1 <0>        -0.1888
      7 C5         -2.3967    3.7639    0.0033 C.ar      1 <0>         0.0005
      8 C6         -3.5955    3.0858    0.1265 C.ar      1 <0>        -0.7749
      9 C7         -3.6072    1.7055    0.2101 C.ar      1 <0>        -0.0133
     10 C8         -2.4206    0.9998    0.1708 C.ar      1 <0>        -0.1546
     11 S1         -5.1115    3.9824    0.1765 S.o2      1 <0>         2.7784
     12 O2         -4.8696    5.2256   -0.4677 O.2       1 <0>        -0.8955
     13 O3         -6.1275    3.0866   -0.2533 O.2       1 <0>        -0.9073
     14 N2         -5.4250    4.3260    1.7659 N.pl3     1 <0>        -0.7936
     15 O4         -4.5612    5.1846    2.4882 O.3       1 <0>        -0.1178
     16 C9         -4.9517    5.3929    3.8470 C.3       1 <0>         0.0106
     17 C10        -3.9675    6.3170    4.5165 C.ar      1 <0>        -0.1301
     18 C11        -2.8610    5.7964    5.1619 C.ar      1 <0>        -0.0648
     19 C12        -1.9543    6.6417    5.7716 C.ar      1 <0>        -0.2267
     20 C13        -2.1606    8.0133    5.7456 C.ar      1 <0>         0.1089
     21 C14        -3.2745    8.5329    5.1023 C.ar      1 <0>        -0.1613
     22 C15        -4.1753    7.6836    4.4893 C.ar      1 <0>        -0.0632
     23 O5         -1.2728    8.8467    6.3491 O.3       1 <0>        -0.2094
     24 C16        -0.1491    8.2419    6.9922 C.3       1 <0>        -0.0634
     25 H1          1.5095   -1.5955    0.1444 H         1 <0>         0.1070
     26 H2          1.3465   -1.5742   -1.6280 H         1 <0>         0.1216
     27 H3          2.1655   -0.2322   -0.7933 H         1 <0>         0.0856
     28 H4          0.7855    1.3363    0.4186 H         1 <0>         0.2348
     29 H5         -0.2699    3.5948   -0.1210 H         1 <0>         0.1353
     30 H6         -2.3910    4.8418   -0.0625 H         1 <0>         0.1572
     31 H7         -4.5451    1.1788    0.3060 H         1 <0>         0.1510
     32 H8         -2.4304   -0.0782    0.2354 H         1 <0>         0.1699
     33 H9         -6.2002    3.9391    2.2020 H         1 <0>         0.2398
     34 H10        -5.9459    5.8389    3.8750 H         1 <0>         0.0824
     35 H11        -4.9674    4.4373    4.3711 H         1 <0>         0.0770
     36 H12        -2.7032    4.7282    5.1856 H         1 <0>         0.1333
     37 H13        -1.0879    6.2348    6.2718 H         1 <0>         0.1367
     38 H14        -3.4375    9.6003    5.0810 H         1 <0>         0.1480
     39 H15        -5.0425    8.0876    3.9880 H         1 <0>         0.1417
     40 H16        -0.4976    7.5686    7.7753 H         1 <0>         0.0684
     41 H17         0.4291    7.6787    6.2596 H         1 <0>         0.0688
     42 H18         0.4784    9.0170    7.4321 H         1 <0>         0.1100
@<TRIPOS>BOND
     1    1    2 1
     2    1   25 1
     3    1   26 1
     4    1   27 1
     5    2    3 2
     6    2    4 am
     7    4    5 1
     8    4   28 1
     9    5   10 ar
    10    5    6 ar
    11    6    7 ar
    12    6   29 1
    13    7    8 ar
    14    7   30 1
    15    8    9 ar
    16    8   11 1
    17    9   10 ar
    18    9   31 1
    19   10   32 1
    20   11   12 2
    21   11   13 2
    22   11   14 1
    23   14   15 1
    24   14   33 1
    25   15   16 1
    26   16   17 1
    27   16   34 1
    28   16   35 1
    29   17   22 ar
    30   17   18 ar
    31   18   19 ar
    32   18   36 1
    33   19   20 ar
    34   19   37 1
    35   20   21 ar
    36   20   23 1
    37   21   22 ar
    38   21   38 1
    39   22   39 1
    40   23   24 1
    41   24   40 1
    42   24   41 1
    43   24   42 1
@<TRIPOS>MOLECULE
ZINC01257904
   42    44     0     0     0
SMALL
USER_CHARGES

@<TRIPOS>ATOM
      1 C1         -7.2323    5.3741   -6.7155 C.3       1 <0>        -0.1737
      2 C2         -7.1536    6.6014   -5.8446 C.ar      1 <0>        -0.0597
      3 C3         -8.1457    7.5625   -5.9139 C.ar      1 <0>        -0.1405
      4 C4         -8.0770    8.6901   -5.1169 C.ar      1 <0>        -0.1055
      5 C5         -7.0161    8.8604   -4.2487 C.ar      1 <0>        -0.1145
      6 C6         -6.0184    7.8974   -4.1767 C.ar      1 <0>         0.0621
      7 C7         -6.0877    6.7682   -4.9826 C.ar      1 <0>        -0.1326
      8 N1         -4.9425    8.0668   -3.2983 N.am      1 <0>        -0.3109
      9 C8         -4.2632    6.9927   -2.8496 C.2       1 <0>         0.3168
     10 O1         -4.6447    5.8750   -3.1261 O.2       1 <0>        -0.3455
     11 C9         -3.0297    7.1803   -2.0045 C.3       1 <0>        -0.3233
     12 S1         -2.3491    5.5623   -1.5628 S.3       1 <0>         0.3516
     13 C10        -0.9583    6.0664   -0.6057 C.2       1 <0>        -0.1851
     14 N2         -0.5982    7.3035   -0.3385 N.2       1 <0>        -0.1727
     15 N3          0.4661    7.3178    0.3796 N.2       1 <0>         0.0013
     16 N4          0.8597    6.1161    0.6286 N.2       1 <0>        -0.0313
     17 N5         -0.0526    5.2495    0.0013 N.pl3     1 <0>        -0.1092
     18 C11        -0.0314    3.8475   -0.0037 C.ar      1 <0>         0.0626
     19 C12        -1.2229    3.1341    0.0146 C.ar      1 <0>        -0.1430
     20 C13        -1.2022    1.7530    0.0044 C.ar      1 <0>        -0.0957
     21 C14         0.0034    1.0775   -0.0125 C.ar      1 <0>        -0.1469
     22 C15         1.1968    1.7852   -0.0308 C.ar      1 <0>         0.0858
     23 C16         1.1797    3.1715   -0.0265 C.ar      1 <0>        -0.1364
     24 O2          2.3816    1.1199   -0.0527 O.3       1 <0>        -0.2841
     25 C17        -6.9419   10.0898   -3.3803 C.3       1 <0>        -0.1746
     26 H1         -6.7264    5.5669   -7.6616 H         1 <0>         0.0852
     27 H2         -6.7499    4.5379   -6.2094 H         1 <0>         0.0882
     28 H3         -8.2774    5.1299   -6.9055 H         1 <0>         0.0814
     29 H4         -8.9758    7.4320   -6.5924 H         1 <0>         0.1312
     30 H5         -8.8533    9.4388   -5.1733 H         1 <0>         0.1327
     31 H6         -5.3110    6.0196   -4.9321 H         1 <0>         0.1695
     32 H7         -4.6855    8.9573   -3.0122 H         1 <0>         0.2386
     33 H8         -3.2904    7.7249   -1.0970 H         1 <0>         0.1411
     34 H9         -2.2866    7.7458   -2.5668 H         1 <0>         0.1425
     35 H10        -2.1662    3.6596    0.0327 H         1 <0>         0.1546
     36 H11        -2.1298    1.1999    0.0142 H         1 <0>         0.1467
     37 H12         0.0167   -0.0024   -0.0159 H         1 <0>         0.1481
     38 H13         2.1075    3.7240   -0.0411 H         1 <0>         0.1650
     39 H14         2.7096    0.9297   -0.9422 H         1 <0>         0.2335
     40 H15        -6.3994   10.8746   -3.9072 H         1 <0>         0.0832
     41 H16        -7.9504   10.4351   -3.1526 H         1 <0>         0.0896
     42 H17        -6.4224    9.8487   -2.4529 H         1 <0>         0.0738
@<TRIPOS>BOND
     1    1    2 1
     2    1   26 1
     3    1   27 1
     4    1   28 1
     5    2    7 ar
     6    2    3 ar
     7    3    4 ar
     8    3   29 1
     9    4    5 ar
    10    4   30 1
    11    5    6 ar
    12    5   25 1
    13    6    7 ar
    14    6    8 1
    15    7   31 1
    16    8    9 am
    17    8   32 1
    18    9   10 2
    19    9   11 1
    20   11   12 1
    21   11   33 1
    22   11   34 1
    23   12   13 1
    24   13   17 1
    25   13   14 2
    26   14   15 1
    27   15   16 2
    28   16   17 1
    29   17   18 1
    30   18   23 ar
    31   18   19 ar
    32   19   20 ar
    33   19   35 1
    34   20   21 ar
    35   20   36 1
    36   21   22 ar
    37   21   37 1
    38   22   23 ar
    39   22   24 1
    40   23   38 1
    41   24   39 1
    42   25   40 1
    43   25   41 1
    44   25   42 1
@<TRIPOS>MOLECULE
ZINC01261422
   47    50     0     0     0
SMALL
USER_CHARGES

@<TRIPOS>ATOM
      1 C1         -5.4991   -0.4092    2.7732 C.3       1 <0>        -0.2150
      2 C2         -4.1677   -0.7974    3.4193 C.3       1 <0>        -0.0638
      3 C3         -3.3436   -1.6319    2.4372 C.3       1 <0>        -0.1100
      4 C4         -3.0531   -0.8190    1.1974 C.2       1 <0>         0.1245
      5 C5         -2.9198    0.5194    1.2696 C.2       1 <0>        -0.2381
      6 C6         -3.0536    1.2029    2.4931 C.2       1 <0>         0.2826
      7 O1         -2.9065    2.4084    2.5218 O.2       1 <0>        -0.2851
      8 C7         -3.3751    0.4676    3.7657 C.3       1 <0>        -0.1872
      9 C8         -2.6224    1.3230    0.0302 C.3       1 <0>         0.0896
     10 C9         -1.1972    1.7802    0.0172 C.ar      1 <0>        -0.1345
     11 C10        -0.0126    1.0758    0.0080 C.ar      1 <0>        -0.0634
     12 C11         1.1630    1.8188    0.0007 C.ar      1 <0>        -0.1672
     13 C12         1.1410    3.1987    0.0093 C.ar      1 <0>        -0.0906
     14 C13        -0.0462    3.9137    0.0250 C.ar      1 <0>        -0.1590
     15 C14        -1.2336    3.1797    0.0318 C.ar      1 <0>         0.0955
     16 N1         -2.5427    3.6268    0.0467 N.am      1 <0>        -0.2549
     17 C15        -3.4259    2.6069    0.0471 C.2       1 <0>         0.3483
     18 O2         -4.6351    2.7004    0.0587 O.2       1 <0>        -0.3190
     19 C16        -2.9250    5.0410    0.0613 C.3       1 <0>         0.1128
     20 C17        -3.0651    5.5256   -1.3215 C.1       1 <0>        -0.2061
     21 C18        -3.1768    5.9122   -2.4244 C.1       1 <0>        -0.1699
     22 C19        -2.9417    0.5315   -1.2042 C.2       1 <0>        -0.2361
     23 C20        -3.0792   -0.8161   -1.1324 C.2       1 <0>         0.2633
     24 O3         -2.9278   -1.4728    0.0278 O.3       1 <0>        -0.1474
     25 N2         -3.3791   -1.5227   -2.2705 N.pl3     1 <0>        -0.3827
     26 C21        -3.1012    1.2001   -2.4604 C.1       1 <0>        -0.0635
     27 N3         -3.2277    1.7305   -3.4570 N.1       1 <0>        -0.0599
     28 C22        -4.4301   -1.6090    4.6896 C.3       1 <0>        -0.2010
     29 H1         -6.0526   -1.3110    2.5114 H         1 <0>         0.0780
     30 H2         -6.0840    0.1852    3.4751 H         1 <0>         0.0880
     31 H3         -5.3093    0.1749    1.8726 H         1 <0>         0.0978
     32 H4         -3.9035   -2.5257    2.1618 H         1 <0>         0.1108
     33 H5         -2.4048   -1.9229    2.9083 H         1 <0>         0.1137
     34 H6         -3.9234    1.0509    4.3650 H         1 <0>         0.1138
     35 H7         -2.4511    0.1919    4.2740 H         1 <0>         0.1117
     36 H8          0.0021   -0.0041    0.0020 H         1 <0>         0.1346
     37 H9          2.1130    1.3052   -0.0115 H         1 <0>         0.1280
     38 H10         2.0770    3.7375    0.0032 H         1 <0>         0.1288
     39 H11        -0.0525    4.9937    0.0320 H         1 <0>         0.1403
     40 H12        -3.8744    5.1553    0.5843 H         1 <0>         0.1308
     41 H13        -2.1562    5.6199    0.5731 H         1 <0>         0.1083
     42 H14        -3.2767    6.2579   -3.4108 H         1 <0>         0.2184
     43 H15        -3.4904   -1.0580   -3.1147 H         1 <0>         0.2614
     44 H16        -3.4796   -2.4866   -2.2306 H         1 <0>         0.2296
     45 H17        -3.4801   -1.8779    5.1516 H         1 <0>         0.0760
     46 H18        -5.0173   -1.0120    5.3873 H         1 <0>         0.0877
     47 H19        -4.9796   -2.5151    4.4348 H         1 <0>         0.0804
@<TRIPOS>BOND
     1    1    2 1
     2    1   29 1
     3    1   30 1
     4    1   31 1
     5    2    8 1
     6    2    3 1
     7    2   28 1
     8    3    4 1
     9    3   32 1
    10    3   33 1
    11    4   24 1
    12    4    5 2
    13    5    6 1
    14    5    9 1
    15    6    7 2
    16    6    8 1
    17    8   34 1
    18    8   35 1
    19    9   17 1
    20    9   10 1
    21    9   22 1
    22   10   15 ar
    23   10   11 ar
    24   11   12 ar
    25   11   36 1
    26   12   13 ar
    27   12   37 1
    28   13   14 ar
    29   13   38 1
    30   14   15 ar
    31   14   39 1
    32   15   16 1
    33   16   17 am
    34   16   19 1
    35   17   18 2
    36   19   20 1
    37   19   40 1
    38   19   41 1
    39   20   21 3
    40   21   42 1
    41   22   23 2
    42   22   26 1
    43   23   24 1
    44   23   25 1
    45   25   43 1
    46   25   44 1
    47   26   27 3
    48   28   45 1
    49   28   46 1
    50   28   47 1
@<TRIPOS>MOLECULE
ZINC01269215
   49    51     0     0     0
SMALL
USER_CHARGES

@<TRIPOS>ATOM
      1 C1         -1.1699    1.7283   -0.4905 C.ar      1 <0>        -0.0945
      2 C2          0.0355    1.0910   -0.7252 C.ar      1 <0>        -0.1343
      3 C3          1.2120    1.8114   -0.7225 C.ar      1 <0>        -0.0576
      4 C4          1.1850    3.1852   -0.4770 C.ar      1 <0>        -0.1302
      5 C5         -0.0339    3.8209   -0.2357 C.ar      1 <0>        -0.1046
      6 C6         -1.2032    3.0888   -0.2412 C.ar      1 <0>        -0.1320
      7 C7          2.4420    3.9636   -0.4731 C.2       1 <0>         0.3546
      8 O1          3.5020    3.4073   -0.6840 O.2       1 <0>        -0.3501
      9 N1          2.4125    5.2899   -0.2357 N.am      1 <0>        -0.2974
     10 N2          3.6036    6.0275   -0.2320 N.pl3     1 <0>        -0.1679
     11 C8          3.5741    7.3522    0.0051 C.2       1 <0>         0.1506
     12 C9          4.7592    8.0658    0.1018 C.2       1 <0>        -0.3820
     13 C10         6.0640    7.3909    0.0954 C.2       1 <0>         0.2662
     14 N3          7.1574    8.1304    0.1850 N.2       1 <0>        -0.3495
     15 C11         7.1067    9.4553    0.2918 C.2       1 <0>         0.3856
     16 O2          8.1570   10.0671    0.3762 O.2       1 <0>        -0.3419
     17 N4          5.9624   10.1543    0.3112 N.am      1 <0>        -0.3240
     18 C12         4.7658    9.5350    0.2219 C.2       1 <0>         0.3867
     19 O3          3.7270   10.1688    0.2402 O.2       1 <0>        -0.3701
     20 C13         6.0113   11.6135    0.4318 C.3       1 <0>         0.0469
     21 C14         6.7673   12.1900   -0.7827 C.3       1 <0>        -0.1682
     22 C15         6.3871   13.6385   -0.9380 C.3       1 <0>        -0.1576
     23 C16         7.3793   14.5848   -0.2353 C.3       1 <0>        -0.1554
     24 C17         7.8218   14.0673    1.1468 C.3       1 <0>        -0.1624
     25 C18         6.6808   13.4841    1.9355 C.3       1 <0>        -0.1491
     26 C19         6.6464   11.9611    1.6944 C.3       1 <0>        -0.1890
     27 O4          6.1457    6.0476   -0.0051 O.3       1 <0>        -0.2706
     28 H1         -2.0886    1.1605   -0.4981 H         1 <0>         0.1384
     29 H2          0.0550    0.0281   -0.9154 H         1 <0>         0.1427
     30 H3          2.1520    1.3135   -0.9097 H         1 <0>         0.1602
     31 H4         -0.0616    4.8837   -0.0454 H         1 <0>         0.1208
     32 H5         -2.1470    3.5795   -0.0546 H         1 <0>         0.1389
     33 H6          1.5666    5.7338   -0.0674 H         1 <0>         0.2582
     34 H7          4.4495    5.5836   -0.4003 H         1 <0>         0.3100
     35 H8          2.6275    7.8593    0.1200 H         1 <0>         0.1802
     36 H9          4.9927   12.0017    0.4304 H         1 <0>         0.1227
     37 H10         7.8416   12.1074   -0.6182 H         1 <0>         0.1189
     38 H11         6.4884   11.6408   -1.6820 H         1 <0>         0.0849
     39 H12         5.3944   13.7907   -0.5144 H         1 <0>         0.0790
     40 H13         6.3583   13.8829   -1.9998 H         1 <0>         0.0779
     41 H14         6.9075   15.5595   -0.1112 H         1 <0>         0.0734
     42 H15         8.2607   14.7011   -0.8658 H         1 <0>         0.0783
     43 H16         8.2544   14.8937    1.7108 H         1 <0>         0.0736
     44 H17         8.5836   13.3001    1.0087 H         1 <0>         0.0944
     45 H18         5.7420   13.9285    1.6047 H         1 <0>         0.0816
     46 H19         6.8261   13.6835    2.9972 H         1 <0>         0.0813
     47 H20         6.0973   11.4872    2.5080 H         1 <0>         0.0796
     48 H21         7.6680   11.5809    1.6920 H         1 <0>         0.1242
     49 H22         7.0507    5.7071    0.0002 H         1 <0>         0.2786
@<TRIPOS>BOND
     1    1    6 ar
     2    1    2 ar
     3    1   28 1
     4    2    3 ar
     5    2   29 1
     6    3    4 ar
     7    3   30 1
     8    4    5 ar
     9    4    7 1
    10    5    6 ar
    11    5   31 1
    12    6   32 1
    13    7    8 2
    14    7    9 am
    15    9   10 1
    16    9   33 1
    17   10   11 1
    18   10   34 1
    19   11   12 2
    20   11   35 1
    21   12   18 1
    22   12   13 1
    23   13   14 2
    24   13   27 1
    25   14   15 1
    26   15   16 2
    27   15   17 am
    28   17   18 am
    29   17   20 1
    30   18   19 2
    31   20   26 1
    32   20   21 1
    33   20   36 1
    34   21   22 1
    35   21   37 1
    36   21   38 1
    37   22   23 1
    38   22   39 1
    39   22   40 1
    40   23   24 1
    41   23   41 1
    42   23   42 1
    43   24   25 1
    44   24   43 1
    45   24   44 1
    46   25   26 1
    47   25   45 1
    48   25   46 1
    49   26   47 1
    50   26   48 1
    51   27   49 1
@<TRIPOS>MOLECULE
ZINC01270673
   46    49     0     0     0
SMALL
USER_CHARGES

@<TRIPOS>ATOM
      1 C1         -1.7237    6.0887    3.8008 C.3       1 <0>        -0.2109
      2 C2         -1.5256    4.7476    3.0914 C.3       1 <0>        -0.0692
      3 C3         -0.9667    3.7243    4.0820 C.3       1 <0>        -0.2077
      4 C4         -2.8488    4.2607    2.5591 C.2       1 <0>         0.0265
      5 C5         -3.1422    4.0139    1.2739 C.2       1 <0>        -0.2604
      6 C6         -4.4855    3.5773    1.2072 C.2       1 <0>         0.0819
      7 N1         -4.9652    3.5660    2.4164 N.2       1 <0>        -0.0617
      8 N2         -3.9544    3.9934    3.2918 N.pl3     1 <0>        -0.1820
      9 H1         -4.0371    4.0845    4.2842 H         1 <0>         0.2928
     10 O1         -5.0774    3.2510    0.0271 O.3       1 <0>        -0.1061
     11 C7         -4.4460    3.6028   -1.1104 C.2       1 <0>         0.2881
     12 C8         -3.1627    4.0226   -1.1730 C.2       1 <0>        -0.2531
     13 C9         -2.2877    4.1405    0.0440 C.3       1 <0>         0.1189
     14 C10        -1.1972    3.1180    0.0297 C.ar      1 <0>        -0.1274
     15 C11        -1.2343    1.7402    0.0174 C.ar      1 <0>        -0.0564
     16 C12        -0.0126    1.0758    0.0080 C.ar      1 <0>        -0.1628
     17 C13         1.1814    1.7679    0.0003 C.ar      1 <0>        -0.0949
     18 C14         1.2271    3.1531    0.0073 C.ar      1 <0>        -0.1617
     19 C15         0.0077    3.8321    0.0219 C.ar      1 <0>         0.0659
     20 N3         -0.2400    5.1935    0.0308 N.am      1 <0>        -0.2764
     21 C16        -1.5617    5.4675    0.0429 C.2       1 <0>         0.3270
     22 O2         -2.0705    6.5685    0.0517 O.2       1 <0>        -0.3084
     23 C17         0.8084    6.2167    0.0267 C.3       1 <0>         0.0203
     24 C18         1.1555    6.5745   -1.3954 C.2       1 <0>        -0.2006
     25 C19         1.0983    7.8226   -1.7894 C.2       1 <0>        -0.1891
     26 C20        -2.6144    4.3689   -2.4498 C.1       1 <0>        -0.0625
     27 N4         -2.1795    4.6437   -3.4626 N.1       1 <0>        -0.0720
     28 N5         -5.1539    3.5305   -2.2842 N.pl3     1 <0>        -0.3836
     29 H2         -2.1219    6.8177    3.0950 H         1 <0>         0.0983
     30 H3         -2.4235    5.9629    4.6269 H         1 <0>         0.0681
     31 H4         -0.7667    6.4408    4.1858 H         1 <0>         0.0824
     32 H5         -0.8258    4.8734    2.2653 H         1 <0>         0.1233
     33 H6         -0.8256    2.7689    3.5766 H         1 <0>         0.0895
     34 H7         -0.0097    4.0765    4.4670 H         1 <0>         0.0840
     35 H8         -1.6666    3.5985    4.9081 H         1 <0>         0.0681
     36 H9         -2.1700    1.2009    0.0194 H         1 <0>         0.1434
     37 H10         0.0021   -0.0041    0.0020 H         1 <0>         0.1311
     38 H11         2.1080    1.2133   -0.0112 H         1 <0>         0.1299
     39 H12         2.1671    3.6850    0.0020 H         1 <0>         0.1386
     40 H13         0.4514    7.1048    0.5481 H         1 <0>         0.1117
     41 H14         1.6945    5.8310    0.5309 H         1 <0>         0.0953
     42 H15         1.4514    5.8021   -2.0898 H         1 <0>         0.1352
     43 H16         0.8024    8.5950   -1.0951 H         1 <0>         0.1145
     44 H17         1.3471    8.0790   -2.8086 H         1 <0>         0.1187
     45 H18        -6.0774    3.2337   -2.2762 H         1 <0>         0.2319
     46 H19        -4.7307    3.7762   -3.1218 H         1 <0>         0.2611
@<TRIPOS>BOND
     1    1    2 1
     2    1   29 1
     3    1   30 1
     4    1   31 1
     5    2    3 1
     6    2    4 1
     7    2   32 1
     8    3   33 1
     9    3   34 1
    10    3   35 1
    11    4    8 1
    12    4    5 2
    13    5   13 1
    14    5    6 1
    15    6    7 2
    16    6   10 1
    17    7    8 1
    18    8    9 1
    19   10   11 1
    20   11   12 2
    21   11   28 1
    22   12   13 1
    23   12   26 1
    24   13   21 1
    25   13   14 1
    26   14   19 ar
    27   14   15 ar
    28   15   16 ar
    29   15   36 1
    30   16   17 ar
    31   16   37 1
    32   17   18 ar
    33   17   38 1
    34   18   19 ar
    35   18   39 1
    36   19   20 1
    37   20   21 am
    38   20   23 1
    39   21   22 2
    40   23   24 1
    41   23   40 1
    42   23   41 1
    43   24   25 2
    44   24   42 1
    45   25   43 1
    46   25   44 1
    47   26   27 3
    48   28   45 1
    49   28   46 1
@<TRIPOS>MOLECULE
ZINC01270673
   46    49     0     0     0
SMALL
USER_CHARGES

@<TRIPOS>ATOM
      1 C1         -1.7234    6.0878    3.8014 C.3       1 <0>        -0.2078
      2 C2         -1.5254    4.7470    3.0915 C.3       1 <0>        -0.0436
      3 C3         -0.9664    3.7233    4.0816 C.3       1 <0>        -0.2045
      4 C4         -2.8487    4.2602    2.5592 C.2       1 <0>        -0.0132
      5 C5         -3.1424    4.0144    1.2738 C.2       1 <0>        -0.2527
      6 C6         -4.4857    3.5781    1.2071 C.2       1 <0>         0.0994
      7 N1         -4.9651    3.5656    2.4165 N.pl3     1 <0>        -0.1186
      8 N2         -3.9542    3.9927    3.2919 N.2       1 <0>        -0.1005
      9 H1         -5.8927    3.2981    2.6772 H         1 <0>         0.2873
     10 O1         -5.0778    3.2523    0.0270 O.3       1 <0>        -0.1400
     11 C7         -4.4464    3.6043   -1.1105 C.2       1 <0>         0.2835
     12 C8         -3.1630    4.0239   -1.1731 C.2       1 <0>        -0.2370
     13 C9         -2.2879    4.1412    0.0439 C.3       1 <0>         0.1157
     14 C10        -1.1976    3.1185    0.0292 C.ar      1 <0>        -0.1276
     15 C11        -1.2350    1.7407    0.0165 C.ar      1 <0>        -0.0571
     16 C12        -0.0135    1.0760    0.0068 C.ar      1 <0>        -0.1629
     17 C13         1.1807    1.7679   -0.0008 C.ar      1 <0>        -0.0938
     18 C14         1.2267    3.1531    0.0066 C.ar      1 <0>        -0.1607
     19 C15         0.0074    3.8323    0.0215 C.ar      1 <0>         0.0699
     20 N3         -0.2400    5.1938    0.0309 N.am      1 <0>        -0.2742
     21 C16        -1.5616    5.4680    0.0432 C.2       1 <0>         0.3304
     22 O2         -2.0702    6.5691    0.0524 O.2       1 <0>        -0.3085
     23 C17         0.8086    6.2167    0.0270 C.3       1 <0>         0.0206
     24 C18         1.1557    6.5749   -1.3950 C.2       1 <0>        -0.2008
     25 C19         1.0987    7.8232   -1.7886 C.2       1 <0>        -0.1901
     26 C20        -2.6148    4.3704   -2.4498 C.1       1 <0>        -0.0649
     27 N4         -2.1799    4.6455   -3.4625 N.1       1 <0>        -0.0660
     28 N5         -5.1544    3.5325   -2.2843 N.pl3     1 <0>        -0.3866
     29 H2         -2.1217    6.8171    3.0959 H         1 <0>         0.0885
     30 H3         -2.4231    5.9617    4.6275 H         1 <0>         0.0866
     31 H4         -0.7664    6.4398    4.1864 H         1 <0>         0.0734
     32 H5         -0.8257    4.8731    2.2653 H         1 <0>         0.1068
     33 H6         -0.8253    2.7681    3.5759 H         1 <0>         0.0798
     34 H7         -0.0093    4.0754    4.4667 H         1 <0>         0.0749
     35 H8         -1.6662    3.5972    4.9078 H         1 <0>         0.0866
     36 H9         -2.1708    1.2016    0.0184 H         1 <0>         0.1395
     37 H10         0.0010   -0.0039    0.0004 H         1 <0>         0.1302
     38 H11         2.1072    1.2131   -0.0126 H         1 <0>         0.1297
     39 H12         2.1668    3.6848    0.0014 H         1 <0>         0.1389
     40 H13         0.4518    7.1047    0.5488 H         1 <0>         0.1135
     41 H14         1.6947    5.8307    0.5311 H         1 <0>         0.0964
     42 H15         1.4514    5.8027   -2.0896 H         1 <0>         0.1341
     43 H16         0.8030    8.5954   -1.0940 H         1 <0>         0.1151
     44 H17         1.3475    8.0798   -2.8077 H         1 <0>         0.1178
     45 H18        -6.0780    3.2359   -2.2763 H         1 <0>         0.2294
     46 H19        -4.7312    3.7784   -3.1218 H         1 <0>         0.2629
@<TRIPOS>BOND
     1    1    2 1
     2    1   29 1
     3    1   30 1
     4    1   31 1
     5    2    3 1
     6    2    4 1
     7    2   32 1
     8    3   33 1
     9    3   34 1
    10    3   35 1
    11    4    5 1
    12    4    8 2
    13    5   13 1
    14    5    6 2
    15    6   10 1
    16    6    7 1
    17    7    9 1
    18    7    8 1
    19   10   11 1
    20   11   12 2
    21   11   28 1
    22   12   13 1
    23   12   26 1
    24   13   21 1
    25   13   14 1
    26   14   19 ar
    27   14   15 ar
    28   15   16 ar
    29   15   36 1
    30   16   17 ar
    31   16   37 1
    32   17   18 ar
    33   17   38 1
    34   18   19 ar
    35   18   39 1
    36   19   20 1
    37   20   21 am
    38   20   23 1
    39   21   22 2
    40   23   24 1
    41   23   40 1
    42   23   41 1
    43   24   25 2
    44   24   42 1
    45   25   43 1
    46   25   44 1
    47   26   27 3
    48   28   45 1
    49   28   46 1
@<TRIPOS>MOLECULE
ZINC01270674
   46    49     0     0     0
SMALL
USER_CHARGES

@<TRIPOS>ATOM
      1 C1         -5.7652    3.7915   -1.4688 C.3       1 <0>        -0.2077
      2 C2         -5.3010    2.4636   -0.8670 C.3       1 <0>        -0.0693
      3 C3         -5.8050    2.3526    0.5734 C.3       1 <0>        -0.2109
      4 C4         -5.8532    1.3225   -1.6818 C.2       1 <0>         0.0266
      5 C5         -5.1357    0.3897   -2.3251 C.2       1 <0>        -0.2606
      6 C6         -6.0371   -0.4926   -2.9645 C.2       1 <0>         0.0819
      7 N1         -7.2464   -0.0896   -2.7048 N.2       1 <0>        -0.0615
      8 N2         -7.1621    1.0547   -1.8960 N.pl3     1 <0>        -0.1818
      9 H1         -7.9348    1.5804   -1.5401 H         1 <0>         0.2930
     10 O1         -5.6058   -1.5517   -3.7004 O.3       1 <0>        -0.1059
     11 C7         -4.3095   -1.9045   -3.5930 C.2       1 <0>         0.2886
     12 C8         -3.3556   -1.1413   -3.0146 C.2       1 <0>        -0.2538
     13 C9         -3.6467    0.2096   -2.4220 C.3       1 <0>         0.1192
     14 C10        -3.0159    1.3016   -3.2246 C.ar      1 <0>        -0.1271
     15 C11        -3.1867    1.6897   -4.5360 C.ar      1 <0>        -0.0570
     16 C12        -2.4278    2.7673   -4.9794 C.ar      1 <0>        -0.1621
     17 C13        -1.5447    3.4176   -4.1418 C.ar      1 <0>        -0.0953
     18 C14        -1.3675    3.0336   -2.8218 C.ar      1 <0>        -0.1581
     19 C15        -2.1265    1.9559   -2.3628 C.ar      1 <0>         0.0668
     20 N3         -2.1461    1.3646   -1.1118 N.am      1 <0>        -0.2764
     21 C16        -3.0125    0.3311   -1.0541 C.2       1 <0>         0.3254
     22 O2         -3.2394   -0.3673   -0.0888 O.2       1 <0>        -0.3101
     23 C17        -1.3278    1.8115    0.0182 C.3       1 <0>         0.0183
     24 C18        -0.0126    1.0758    0.0080 C.2       1 <0>        -0.1864
     25 C19         1.1129    1.7462    0.0008 C.2       1 <0>        -0.2082
     26 C20        -2.0138   -1.6390   -2.9646 C.1       1 <0>        -0.0622
     27 N4         -0.9494   -2.0338   -2.9249 N.1       1 <0>        -0.0731
     28 N5         -3.9325   -3.1208   -4.1056 N.pl3     1 <0>        -0.3834
     29 H2         -6.8544    3.8330   -1.4607 H         1 <0>         0.0682
     30 H3         -5.3658    4.6169   -0.8794 H         1 <0>         0.0840
     31 H4         -5.4061    3.8706   -2.4949 H         1 <0>         0.0895
     32 H5         -4.2118    2.4221   -0.8750 H         1 <0>         0.1230
     33 H6         -5.4055    3.1779    1.1627 H         1 <0>         0.0826
     34 H7         -6.8941    2.3941    0.5814 H         1 <0>         0.0682
     35 H8         -5.4742    1.4066    1.0021 H         1 <0>         0.0984
     36 H9         -3.8785    1.1795   -5.1899 H         1 <0>         0.1433
     37 H10        -2.5321    3.1026   -6.0008 H         1 <0>         0.1310
     38 H11        -0.9750    4.2508   -4.5261 H         1 <0>         0.1300
     39 H12        -0.6737    3.5492   -2.1744 H         1 <0>         0.1383
     40 H13        -1.8525    1.6048    0.9510 H         1 <0>         0.1161
     41 H14        -1.1455    2.8828   -0.0664 H         1 <0>         0.0930
     42 H15         0.0021   -0.0041    0.0020 H         1 <0>         0.1457
     43 H16         2.0554    1.2190   -0.0110 H         1 <0>         0.1210
     44 H17         1.0982    2.8261    0.0067 H         1 <0>         0.1055
     45 H18        -4.5911   -3.6943   -4.5277 H         1 <0>         0.2321
     46 H19        -3.0075   -3.4067   -4.0456 H         1 <0>         0.2611
@<TRIPOS>BOND
     1    1    2 1
     2    1   29 1
     3    1   30 1
     4    1   31 1
     5    2    3 1
     6    2    4 1
     7    2   32 1
     8    3   33 1
     9    3   34 1
    10    3   35 1
    11    4    8 1
    12    4    5 2
    13    5   13 1
    14    5    6 1
    15    6    7 2
    16    6   10 1
    17    7    8 1
    18    8    9 1
    19   10   11 1
    20   11   12 2
    21   11   28 1
    22   12   13 1
    23   12   26 1
    24   13   21 1
    25   13   14 1
    26   14   19 ar
    27   14   15 ar
    28   15   16 ar
    29   15   36 1
    30   16   17 ar
    31   16   37 1
    32   17   18 ar
    33   17   38 1
    34   18   19 ar
    35   18   39 1
    36   19   20 1
    37   20   21 am
    38   20   23 1
    39   21   22 2
    40   23   24 1
    41   23   40 1
    42   23   41 1
    43   24   25 2
    44   24   42 1
    45   25   43 1
    46   25   44 1
    47   26   27 3
    48   28   45 1
    49   28   46 1
@<TRIPOS>MOLECULE
ZINC01270674
   46    49     0     0     0
SMALL
USER_CHARGES

@<TRIPOS>ATOM
      1 C1         -5.7646    3.7920   -1.4702 C.3       1 <0>        -0.2045
      2 C2         -5.3010    2.4642   -0.8678 C.3       1 <0>        -0.0437
      3 C3         -5.8055    2.3538    0.5725 C.3       1 <0>        -0.2078
      4 C4         -5.8532    1.3229   -1.6824 C.2       1 <0>        -0.0131
      5 C5         -5.1357    0.3897   -2.3251 C.2       1 <0>        -0.2529
      6 C6         -6.0371   -0.4926   -2.9645 C.2       1 <0>         0.0994
      7 N1         -7.2464   -0.0892   -2.7054 N.pl3     1 <0>        -0.1184
      8 N2         -7.1621    1.0554   -1.8969 N.2       1 <0>        -0.1003
      9 H1         -8.0899   -0.5198   -3.0264 H         1 <0>         0.2874
     10 O1         -5.6058   -1.5517   -3.7004 O.3       1 <0>        -0.1398
     11 C7         -4.3095   -1.9045   -3.5930 C.2       1 <0>         0.2841
     12 C8         -3.3556   -1.1413   -3.0146 C.2       1 <0>        -0.2377
     13 C9         -3.6467    0.2096   -2.4220 C.3       1 <0>         0.1160
     14 C10        -3.0159    1.3016   -3.2246 C.ar      1 <0>        -0.1274
     15 C11        -3.1867    1.6897   -4.5360 C.ar      1 <0>        -0.0576
     16 C12        -2.4278    2.7673   -4.9794 C.ar      1 <0>        -0.1623
     17 C13        -1.5447    3.4176   -4.1418 C.ar      1 <0>        -0.0941
     18 C14        -1.3675    3.0336   -2.8218 C.ar      1 <0>        -0.1573
     19 C15        -2.1265    1.9559   -2.3628 C.ar      1 <0>         0.0709
     20 N3         -2.1461    1.3646   -1.1118 N.am      1 <0>        -0.2742
     21 C16        -3.0125    0.3311   -1.0541 C.2       1 <0>         0.3288
     22 O2         -3.2394   -0.3673   -0.0888 O.2       1 <0>        -0.3102
     23 C17        -1.3278    1.8115    0.0182 C.3       1 <0>         0.0187
     24 C18        -0.0126    1.0758    0.0080 C.2       1 <0>        -0.1866
     25 C19         1.1129    1.7462    0.0008 C.2       1 <0>        -0.2088
     26 C20        -2.0138   -1.6390   -2.9646 C.1       1 <0>        -0.0645
     27 N4         -0.9494   -2.0338   -2.9249 N.1       1 <0>        -0.0671
     28 N5         -3.9325   -3.1208   -4.1056 N.pl3     1 <0>        -0.3865
     29 H2         -6.8538    3.8337   -1.4625 H         1 <0>         0.0867
     30 H3         -5.3652    4.6175   -0.8810 H         1 <0>         0.0749
     31 H4         -5.4052    3.8706   -2.4962 H         1 <0>         0.0798
     32 H5         -4.2118    2.4224   -0.8754 H         1 <0>         0.1066
     33 H6         -5.4060    3.1792    1.1616 H         1 <0>         0.0735
     34 H7         -6.8946    2.3956    0.5801 H         1 <0>         0.0866
     35 H8         -5.4751    1.4079    1.0016 H         1 <0>         0.0886
     36 H9         -3.8785    1.1795   -5.1899 H         1 <0>         0.1394
     37 H10        -2.5321    3.1026   -6.0008 H         1 <0>         0.1301
     38 H11        -0.9750    4.2508   -4.5261 H         1 <0>         0.1298
     39 H12        -0.6737    3.5492   -2.1744 H         1 <0>         0.1386
     40 H13        -1.8525    1.6048    0.9510 H         1 <0>         0.1178
     41 H14        -1.1455    2.8828   -0.0664 H         1 <0>         0.0942
     42 H15         0.0021   -0.0041    0.0020 H         1 <0>         0.1443
     43 H16         2.0554    1.2190   -0.0110 H         1 <0>         0.1201
     44 H17         1.0982    2.8261    0.0067 H         1 <0>         0.1061
     45 H18        -4.5911   -3.6943   -4.5277 H         1 <0>         0.2295
     46 H19        -3.0075   -3.4067   -4.0456 H         1 <0>         0.2629
@<TRIPOS>BOND
     1    1    2 1
     2    1   29 1
     3    1   30 1
     4    1   31 1
     5    2    3 1
     6    2    4 1
     7    2   32 1
     8    3   33 1
     9    3   34 1
    10    3   35 1
    11    4    5 1
    12    4    8 2
    13    5   13 1
    14    5    6 2
    15    6   10 1
    16    6    7 1
    17    7    9 1
    18    7    8 1
    19   10   11 1
    20   11   12 2
    21   11   28 1
    22   12   13 1
    23   12   26 1
    24   13   21 1
    25   13   14 1
    26   14   19 ar
    27   14   15 ar
    28   15   16 ar
    29   15   36 1
    30   16   17 ar
    31   16   37 1
    32   17   18 ar
    33   17   38 1
    34   18   19 ar
    35   18   39 1
    36   19   20 1
    37   20   21 am
    38   20   23 1
    39   21   22 2
    40   23   24 1
    41   23   40 1
    42   23   41 1
    43   24   25 2
    44   24   42 1
    45   25   43 1
    46   25   44 1
    47   26   27 3
    48   28   45 1
    49   28   46 1
@<TRIPOS>MOLECULE
ZINC01274349
   42    44     0     0     0
SMALL
USER_CHARGES

@<TRIPOS>ATOM
      1 C1        -14.2042    2.2761   -1.1088 C.3       1 <0>        -0.1773
      2 C2        -12.7201    2.2976   -0.8477 C.ar      1 <0>        -0.0626
      3 C3        -12.0014    3.4618   -1.0536 C.ar      1 <0>        -0.1292
      4 C4        -10.6426    3.4883   -0.8166 C.ar      1 <0>        -0.1272
      5 C5         -9.9930    2.3372   -0.3681 C.ar      1 <0>        -0.0151
      6 C6        -10.7230    1.1645   -0.1679 C.ar      1 <0>        -0.0806
      7 C7        -12.0822    1.1530   -0.4037 C.ar      1 <0>        -0.1297
      8 C8         -8.5371    2.3583   -0.1120 C.2       1 <0>        -0.0339
      9 N1         -7.7393    1.3173   -0.0579 N.2       1 <0>        -0.0767
     10 N2         -6.5352    1.6993    0.1780 N.2       1 <0>        -0.1119
     11 C9         -6.4920    3.0075    0.2979 C.2       1 <0>        -0.2253
     12 N3         -7.7628    3.4728    0.1142 N.pl3     1 <0>        -0.1497
     13 C10        -8.2085    4.8679    0.1505 C.3       1 <0>        -0.0720
     14 S1         -5.0601    3.9803    0.6266 S.3       1 <0>         0.2898
     15 C11        -3.8118    2.6744    0.7379 C.3       1 <0>        -0.3094
     16 C12        -2.4657    3.2892    1.0226 C.2       1 <0>         0.2828
     17 O1         -2.3606    4.4920    1.1388 O.2       1 <0>        -0.2746
     18 C13        -1.2810    2.4321    1.1593 C.ar      1 <0>        -0.1568
     19 C14        -1.3988    1.0439    1.0195 C.ar      1 <0>        -0.0834
     20 C15        -0.2876    0.2423    1.1538 C.ar      1 <0>        -0.1563
     21 C16         0.9538    0.8078    1.4162 C.ar      1 <0>         0.0798
     22 C17         1.0806    2.1903    1.5508 C.ar      1 <0>         0.0308
     23 C18        -0.0292    3.0012    1.4238 C.ar      1 <0>        -0.0783
     24 O2          2.2980    2.7395    1.8077 O.3       1 <0>        -0.2720
     25 O3          2.0468    0.0126    1.5415 O.3       1 <0>        -0.2762
     26 H1        -14.3868    1.9906   -2.1448 H         1 <0>         0.0900
     27 H2        -14.6796    1.5549   -0.4440 H         1 <0>         0.0846
     28 H3        -14.6196    3.2672   -0.9263 H         1 <0>         0.0826
     29 H4        -12.5053    4.3519   -1.4003 H         1 <0>         0.1332
     30 H5        -10.0826    4.3976   -0.9780 H         1 <0>         0.1303
     31 H6        -10.2255    0.2692    0.1748 H         1 <0>         0.1552
     32 H7        -12.6489    0.2472   -0.2456 H         1 <0>         0.1373
     33 H8         -8.2511    5.2622   -0.8647 H         1 <0>         0.0955
     34 H9         -9.1987    4.9213    0.6029 H         1 <0>         0.1078
     35 H10        -7.5072    5.4581    0.7405 H         1 <0>         0.1084
     36 H11        -3.7738    2.1749   -0.1276 H         1 <0>         0.1300
     37 H12        -4.0750    1.9877    1.5424 H         1 <0>         0.1439
     38 H13        -2.3619    0.6018    0.8111 H         1 <0>         0.1454
     39 H14        -0.3806   -0.8287    1.0504 H         1 <0>         0.1504
     40 H15         0.0678    4.0718    1.5278 H         1 <0>         0.1664
     41 H16         2.8012    2.9689    1.0144 H         1 <0>         0.2244
     42 H17         2.5146   -0.1469    0.7103 H         1 <0>         0.2298
@<TRIPOS>BOND
     1    1    2 1
     2    1   26 1
     3    1   27 1
     4    1   28 1
     5    2    7 ar
     6    2    3 ar
     7    3    4 ar
     8    3   29 1
     9    4    5 ar
    10    4   30 1
    11    5    6 ar
    12    5    8 1
    13    6    7 ar
    14    6   31 1
    15    7   32 1
    16    8   12 1
    17    8    9 2
    18    9   10 1
    19   10   11 2
    20   11   12 1
    21   11   14 1
    22   12   13 1
    23   13   33 1
    24   13   34 1
    25   13   35 1
    26   14   15 1
    27   15   16 1
    28   15   36 1
    29   15   37 1
    30   16   17 2
    31   16   18 1
    32   18   23 ar
    33   18   19 ar
    34   19   20 ar
    35   19   38 1
    36   20   21 ar
    37   20   39 1
    38   21   22 ar
    39   21   25 1
    40   22   23 ar
    41   22   24 1
    42   23   40 1
    43   24   41 1
    44   25   42 1
@<TRIPOS>MOLECULE
ZINC01275284
   44    47     0     0     0
SMALL
USER_CHARGES

@<TRIPOS>ATOM
      1 C1          1.1446   -1.5405   -3.5341 C.3       1 <0>        -0.2084
      2 C2          0.0788   -0.5909   -2.9833 C.3       1 <0>        -0.1800
      3 C3          0.5998    0.8466   -3.0367 C.3       1 <0>        -0.0925
      4 C4         -0.4499    1.7819   -2.4942 C.2       1 <0>        -0.0176
      5 C5         -0.6471    2.0868   -1.2031 C.2       1 <0>        -0.2544
      6 C6         -1.7274    2.9959   -1.1272 C.2       1 <0>         0.1040
      7 N1         -2.1505    3.2189   -2.3372 N.pl3     1 <0>        -0.1197
      8 N2         -1.3632    2.4652   -3.2220 N.2       1 <0>        -0.1029
      9 H1         -2.9057    3.8226   -2.5926 H         1 <0>         0.2869
     10 O1         -2.1692    3.4907    0.0598 O.3       1 <0>        -0.1413
     11 C7         -1.7323    2.9001    1.1881 C.2       1 <0>         0.2876
     12 C8         -0.7000    2.0241    1.2427 C.2       1 <0>        -0.3292
     13 C9          0.0799    1.6142    0.0247 C.3       1 <0>         0.1214
     14 C10         1.4761    2.1467    0.0676 C.ar      1 <0>        -0.1164
     15 C11         1.9633    3.4352    0.1129 C.ar      1 <0>        -0.0471
     16 C12         3.3453    3.5868    0.1432 C.ar      1 <0>        -0.1575
     17 C13         4.1885    2.4944    0.1288 C.ar      1 <0>        -0.0938
     18 C14         3.7063    1.1957    0.0847 C.ar      1 <0>        -0.1606
     19 C15         2.3208    1.0296    0.0534 C.ar      1 <0>         0.0599
     20 N3          1.5763   -0.1359    0.0074 N.am      1 <0>        -0.3140
     21 C16         0.2494    0.1115   -0.0109 C.2       1 <0>         0.3246
     22 O2         -0.6383   -0.7142   -0.0481 O.2       1 <0>        -0.3093
     23 C17        -0.3458    1.4773    2.4845 C.2       1 <0>         0.3635
     24 O3          0.6074    1.9245    3.0973 O.2       1 <0>        -0.3431
     25 O4         -1.0616    0.4550    3.0012 O.3       1 <0>        -0.2571
     26 C18        -0.6445   -0.0529    4.2702 C.3       1 <0>        -0.0593
     27 N4         -2.3734    3.2060    2.3588 N.pl3     1 <0>        -0.3882
     28 H2          0.7733   -2.5646   -3.4962 H         1 <0>         0.0771
     29 H3          1.3702   -1.2738   -4.5666 H         1 <0>         0.0715
     30 H4          2.0495   -1.4595   -2.9319 H         1 <0>         0.0654
     31 H5         -0.1469   -0.8575   -1.9509 H         1 <0>         0.1109
     32 H6         -0.8261   -0.6719   -3.5856 H         1 <0>         0.0926
     33 H7          0.8255    1.1133   -4.0691 H         1 <0>         0.1008
     34 H8          1.5047    0.9276   -2.4344 H         1 <0>         0.1019
     35 H9          1.3016    4.2887    0.1247 H         1 <0>         0.1405
     36 H10         3.7676    4.5802    0.1792 H         1 <0>         0.1298
     37 H11         5.2561    2.6563    0.1529 H         1 <0>         0.1289
     38 H12         4.3749    0.3475    0.0739 H         1 <0>         0.1357
     39 H13         1.9623   -1.0256   -0.0094 H         1 <0>         0.2440
     40 H14         0.3791   -0.4201    4.1959 H         1 <0>         0.0822
     41 H15        -0.6920    0.7430    5.0134 H         1 <0>         0.0701
     42 H16        -1.3025   -0.8689    4.5690 H         1 <0>         0.1045
     43 H17        -3.0599    3.8911    2.3711 H         1 <0>         0.2296
     44 H18        -2.1410    2.7374    3.1757 H         1 <0>         0.2588
@<TRIPOS>BOND
     1    1    2 1
     2    1   28 1
     3    1   29 1
     4    1   30 1
     5    2    3 1
     6    2   31 1
     7    2   32 1
     8    3    4 1
     9    3   33 1
    10    3   34 1
    11    4    5 1
    12    4    8 2
    13    5   13 1
    14    5    6 2
    15    6   10 1
    16    6    7 1
    17    7    9 1
    18    7    8 1
    19   10   11 1
    20   11   12 2
    21   11   27 1
    22   12   13 1
    23   12   23 1
    24   13   21 1
    25   13   14 1
    26   14   19 ar
    27   14   15 ar
    28   15   16 ar
    29   15   35 1
    30   16   17 ar
    31   16   36 1
    32   17   18 ar
    33   17   37 1
    34   18   19 ar
    35   18   38 1
    36   19   20 1
    37   20   21 am
    38   20   39 1
    39   21   22 2
    40   23   24 2
    41   23   25 1
    42   25   26 1
    43   26   40 1
    44   26   41 1
    45   26   42 1
    46   27   43 1
    47   27   44 1
@<TRIPOS>MOLECULE
ZINC01282729
   41    43     0     0     0
SMALL
USER_CHARGES

@<TRIPOS>ATOM
      1 C1          2.1128   -0.3117    1.4049 C.3       1 <0>        -0.1752
      2 C2          2.3169    0.9757    0.6486 C.ar      1 <0>        -0.1069
      3 C3          3.5633    1.5703    0.6194 C.ar      1 <0>        -0.1133
      4 C4          3.7514    2.7512   -0.0748 C.ar      1 <0>        -0.1403
      5 C5          2.6932    3.3407   -0.7423 C.ar      1 <0>        -0.1178
      6 C6          1.4459    2.7486   -0.7214 C.ar      1 <0>        -0.1222
      7 C7          1.2521    1.5652   -0.0202 C.ar      1 <0>         0.0600
      8 N1         -0.0111    0.9658    0.0074 N.am      1 <0>        -0.3213
      9 C8         -1.1202    1.7315    0.0167 C.2       1 <0>         0.3469
     10 O1         -1.0254    2.9398   -0.0762 O.2       1 <0>        -0.3539
     11 C9         -2.4519    1.1019    0.1401 C.ar      1 <0>        -0.1206
     12 C10        -2.5645   -0.2858    0.2413 C.ar      1 <0>        -0.1116
     13 C11        -3.8101   -0.8666    0.3615 C.ar      1 <0>        -0.1106
     14 C12        -4.9467   -0.0777    0.3708 C.ar      1 <0>        -0.0958
     15 C13        -4.8424    1.2980    0.2656 C.ar      1 <0>        -0.1182
     16 C14        -3.6026    1.8920    0.1501 C.ar      1 <0>        -0.0709
     17 C15        -6.3043   -0.7196    0.4966 C.3       1 <0>         0.0400
     18 N2         -6.8249   -1.0266   -0.8380 N.am      1 <0>        -0.3216
     19 C16        -7.5778   -0.1818   -1.5697 C.2       1 <0>         0.3078
     20 O2         -7.9385    0.9334   -1.2597 O.2       1 <0>        -0.3019
     21 C17        -7.8783   -0.9152   -2.8619 C.3       1 <0>        -0.0728
     22 N3         -7.2024   -2.2125   -2.6889 N.am      1 <0>        -0.4030
     23 C18        -6.6162   -2.1826   -1.4784 C.2       1 <0>         0.4049
     24 O3         -5.9695   -3.1029   -1.0180 O.2       1 <0>        -0.3761
     25 H1          2.2990   -1.1563    0.7415 H         1 <0>         0.0807
     26 H2          2.8038   -0.3518    2.2470 H         1 <0>         0.0877
     27 H3          1.0880   -0.3581    1.7733 H         1 <0>         0.0777
     28 H4          4.3918    1.1122    1.1390 H         1 <0>         0.1305
     29 H5          4.7269    3.2141   -0.0960 H         1 <0>         0.1284
     30 H6          2.8436    4.2628   -1.2841 H         1 <0>         0.1328
     31 H7          0.6210    3.2071   -1.2465 H         1 <0>         0.1649
     32 H8         -0.0891   -0.0010    0.0157 H         1 <0>         0.2348
     33 H9         -1.6784   -0.9031    0.2292 H         1 <0>         0.1273
     34 H10        -3.8984   -1.9398    0.4443 H         1 <0>         0.1520
     35 H11        -5.7335    1.9081    0.2735 H         1 <0>         0.1497
     36 H12        -3.5226    2.9658    0.0674 H         1 <0>         0.1604
     37 H13        -6.2189   -1.6401    1.0739 H         1 <0>         0.1228
     38 H14        -6.9845   -0.0348    1.0031 H         1 <0>         0.1182
     39 H15        -7.4653   -0.3784   -3.7159 H         1 <0>         0.1259
     40 H16        -8.9529   -1.0552   -2.9789 H         1 <0>         0.1236
     41 H17        -7.1840   -2.9457   -3.3238 H         1 <0>         0.2772
@<TRIPOS>BOND
     1    1    2 1
     2    1   25 1
     3    1   26 1
     4    1   27 1
     5    2    7 ar
     6    2    3 ar
     7    3    4 ar
     8    3   28 1
     9    4    5 ar
    10    4   29 1
    11    5    6 ar
    12    5   30 1
    13    6    7 ar
    14    6   31 1
    15    7    8 1
    16    8    9 am
    17    8   32 1
    18    9   10 2
    19    9   11 1
    20   11   16 ar
    21   11   12 ar
    22   12   13 ar
    23   12   33 1
    24   13   14 ar
    25   13   34 1
    26   14   15 ar
    27   14   17 1
    28   15   16 ar
    29   15   35 1
    30   16   36 1
    31   17   18 1
    32   17   37 1
    33   17   38 1
    34   18   23 am
    35   18   19 am
    36   19   20 2
    37   19   21 1
    38   21   22 1
    39   21   39 1
    40   21   40 1
    41   22   23 am
    42   22   41 1
    43   23   24 2
@<TRIPOS>MOLECULE
ZINC01287012
   45    47     0     0     0
SMALL
USER_CHARGES

@<TRIPOS>ATOM
      1 C1         -9.0122    1.8152    1.6500 C.3       1 <0>        -0.2050
      2 C2         -9.1655    3.3372    1.6223 C.3       1 <0>        -0.1387
      3 C3         -7.9770    3.9826    2.3378 C.3       1 <0>        -0.2144
      4 C4         -9.2098    3.8190    0.1708 C.3       1 <0>        -0.0076
      5 N1         -9.4581    5.2625    0.1427 N.am      1 <0>        -0.2608
      6 C5         -8.4028    6.1343    0.0313 C.2       1 <0>         0.2181
      7 C6         -8.6426    7.4773    0.0002 C.2       1 <0>        -0.2900
      8 C7         -9.9686    7.9366    0.0888 C.2       1 <0>         0.3466
      9 O1        -10.2070    9.1316    0.0627 O.2       1 <0>        -0.3417
     10 N2        -10.9743    7.0466    0.2023 N.am      1 <0>        -0.3399
     11 H1        -11.9183    7.3703    0.2655 H         1 <0>         0.2790
     12 C8        -10.7183    5.7260    0.2312 C.2       1 <0>         0.4065
     13 O2        -11.6398    4.9395    0.3337 O.2       1 <0>        -0.3754
     14 N3         -7.1127    5.6565   -0.0543 N.am      1 <0>        -0.3549
     15 C9         -6.5435    5.4653   -1.2609 C.2       1 <0>         0.3184
     16 O3         -7.1944    5.6280   -2.2709 O.2       1 <0>        -0.3193
     17 C10        -5.0981    5.0493   -1.3547 C.3       1 <0>        -0.3042
     18 S1         -4.6322    4.8752   -3.0951 S.3       1 <0>         0.3167
     19 C11        -2.9461    4.3968   -2.9140 C.2       1 <0>        -0.1263
     20 N4         -2.0911    4.1279   -3.9453 N.pl3     1 <0>        -0.2032
     21 H2         -2.3076    4.1670   -4.9208 H         1 <0>         0.2626
     22 C12        -0.8684    3.7910   -3.3877 C.ar      1 <0>        -0.0395
     23 C13         0.3611    3.4271   -3.9152 C.ar      1 <0>        -0.1262
     24 C14         1.4165    3.1511   -3.0704 C.ar      1 <0>        -0.1118
     25 C15         1.2546    3.2297   -1.6951 C.ar      1 <0>        -0.1414
     26 C16         0.0392    3.5839   -1.1537 C.ar      1 <0>        -0.0748
     27 C17        -1.0395    3.8665   -1.9955 C.ar      1 <0>        -0.0398
     28 N5         -2.3281    4.2336   -1.7698 N.2       1 <0>        -0.2021
     29 H3         -8.0879    1.5338    1.1454 H         1 <0>         0.0721
     30 H4         -8.9806    1.4719    2.6840 H         1 <0>         0.0836
     31 H5         -9.8589    1.3554    1.1402 H         1 <0>         0.0844
     32 H6        -10.0898    3.6185    2.1269 H         1 <0>         0.1171
     33 H7         -7.0622    3.7745    1.7828 H         1 <0>         0.0623
     34 H8         -8.1295    5.0603    2.3959 H         1 <0>         0.0715
     35 H9         -7.8926    3.5727    3.3442 H         1 <0>         0.0884
     36 H10       -10.0100    3.3024   -0.3592 H         1 <0>         0.1293
     37 H11        -8.2565    3.6048   -0.3124 H         1 <0>         0.1005
     38 H12        -7.8254    8.1775   -0.0916 H         1 <0>         0.1834
     39 H13        -6.6145    5.4578    0.7540 H         1 <0>         0.2523
     40 H14        -4.9605    4.0959   -0.8447 H         1 <0>         0.1401
     41 H15        -4.4708    5.8067   -0.8847 H         1 <0>         0.1452
     42 H16         0.4936    3.3640   -4.9852 H         1 <0>         0.1289
     43 H17         2.3750    2.8725   -3.4827 H         1 <0>         0.1349
     44 H18         2.0883    3.0117   -1.0441 H         1 <0>         0.1348
     45 H19        -0.0798    3.6435   -0.0819 H         1 <0>         0.1406
@<TRIPOS>BOND
     1    1    2 1
     2    1   29 1
     3    1   30 1
     4    1   31 1
     5    2    3 1
     6    2    4 1
     7    2   32 1
     8    3   33 1
     9    3   34 1
    10    3   35 1
    11    4    5 1
    12    4   36 1
    13    4   37 1
    14    5   12 am
    15    5    6 1
    16    6    7 2
    17    6   14 1
    18    7    8 1
    19    7   38 1
    20    8    9 2
    21    8   10 am
    22   10   11 1
    23   10   12 am
    24   12   13 2
    25   14   15 am
    26   14   39 1
    27   15   16 2
    28   15   17 1
    29   17   18 1
    30   17   40 1
    31   17   41 1
    32   18   19 1
    33   19   28 2
    34   19   20 1
    35   20   21 1
    36   20   22 1
    37   22   27 ar
    38   22   23 ar
    39   23   24 ar
    40   23   42 1
    41   24   25 ar
    42   24   43 1
    43   25   26 ar
    44   25   44 1
    45   26   27 ar
    46   26   45 1
    47   27   28 1
@<TRIPOS>MOLECULE
ZINC01287012
   46    48     0     0     0
SMALL
USER_CHARGES

@<TRIPOS>ATOM
      1 C1         -9.0122    1.8152    1.6500 C.3       1 <0>        -0.2048
      2 C2         -9.1655    3.3372    1.6223 C.3       1 <0>        -0.1395
      3 C3         -7.9770    3.9826    2.3378 C.3       1 <0>        -0.2124
      4 C4         -9.2098    3.8190    0.1708 C.3       1 <0>        -0.0063
      5 N1         -9.4581    5.2625    0.1427 N.am      1 <0>        -0.2627
      6 C5         -8.4028    6.1343    0.0313 C.2       1 <0>         0.1953
      7 C6         -8.6426    7.4773    0.0002 C.2       1 <0>        -0.2691
      8 C7         -9.9686    7.9366    0.0888 C.2       1 <0>         0.3430
      9 O1        -10.2070    9.1316    0.0627 O.2       1 <0>        -0.3197
     10 N2        -10.9743    7.0466    0.2023 N.am      1 <0>        -0.3359
     11 H1        -11.9183    7.3703    0.2655 H         1 <0>         0.2892
     12 C8        -10.7183    5.7260    0.2312 C.2       1 <0>         0.4064
     13 O2        -11.6398    4.9395    0.3337 O.2       1 <0>        -0.3559
     14 N3         -7.1127    5.6565   -0.0543 N.am      1 <0>        -0.3336
     15 C9         -6.5435    5.4653   -1.2609 C.2       1 <0>         0.3272
     16 O3         -7.1944    5.6280   -2.2709 O.2       1 <0>        -0.2971
     17 C10        -5.0981    5.0493   -1.3547 C.3       1 <0>        -0.3649
     18 S1         -4.6322    4.8752   -3.0951 S.3       1 <0>         0.4687
     19 C11        -2.9461    4.3968   -2.9140 C.cat     1 <0>        -0.0520
     20 N4         -2.0911    4.1279   -3.9453 N.pl3     1 <0>        -0.1373
     21 H2         -2.3076    4.1670   -4.9208 H         1 <0>         0.3145
     22 C12        -0.8684    3.7910   -3.3877 C.ar      1 <0>        -0.0084
     23 C13         0.3611    3.4271   -3.9152 C.ar      1 <0>        -0.0979
     24 C14         1.4165    3.1511   -3.0704 C.ar      1 <0>        -0.0714
     25 C15         1.2546    3.2297   -1.6951 C.ar      1 <0>        -0.0804
     26 C16         0.0392    3.5839   -1.1537 C.ar      1 <0>        -0.0949
     27 C17        -1.0395    3.8665   -1.9955 C.ar      1 <0>        -0.0444
     28 H3         -8.0879    1.5338    1.1454 H         1 <0>         0.0619
     29 H4         -8.9806    1.4719    2.6840 H         1 <0>         0.0916
     30 H5         -9.8589    1.3554    1.1402 H         1 <0>         0.0924
     31 H6        -10.0898    3.6185    2.1269 H         1 <0>         0.1285
     32 H7         -7.0622    3.7745    1.7828 H         1 <0>         0.0422
     33 H8         -8.1295    5.0603    2.3959 H         1 <0>         0.0729
     34 H9         -7.8926    3.5727    3.3442 H         1 <0>         0.0976
     35 H10       -10.0100    3.3024   -0.3592 H         1 <0>         0.1376
     36 H11        -8.2565    3.6048   -0.3124 H         1 <0>         0.0820
     37 H12        -7.8254    8.1775   -0.0916 H         1 <0>         0.1798
     38 H13        -6.6145    5.4578    0.7540 H         1 <0>         0.2514
     39 H14        -4.9605    4.0959   -0.8447 H         1 <0>         0.1318
     40 H15        -4.4708    5.8067   -0.8847 H         1 <0>         0.1369
     41 H16         0.4936    3.3640   -4.9852 H         1 <0>         0.1655
     42 H17         2.3750    2.8725   -3.4827 H         1 <0>         0.1734
     43 H18         2.0883    3.0117   -1.0441 H         1 <0>         0.1724
     44 H19        -0.0798    3.6435   -0.0819 H         1 <0>         0.1592
     45 N5         -2.3285    4.2337   -1.7689 N.pl3     1 <0>        -0.1361
     46 H20        -2.7533    4.3635   -0.8432 H         1 <0>         0.3033
@<TRIPOS>BOND
     1    1    2 1
     2    1   28 1
     3    1   29 1
     4    1   30 1
     5    2    3 1
     6    2    4 1
     7    2   31 1
     8    3   32 1
     9    3   33 1
    10    3   34 1
    11    4    5 1
    12    4   35 1
    13    4   36 1
    14    5   12 am
    15    5    6 1
    16    6    7 2
    17    6   14 1
    18    7    8 1
    19    7   37 1
    20    8    9 2
    21    8   10 am
    22   10   11 1
    23   10   12 am
    24   12   13 2
    25   14   15 am
    26   14   38 1
    27   15   16 2
    28   15   17 1
    29   17   18 1
    30   17   39 1
    31   17   40 1
    32   18   19 1
    33   19   20 1
    34   19   45 2
    35   20   21 1
    36   20   22 1
    37   22   27 ar
    38   22   23 ar
    39   23   24 ar
    40   23   41 1
    41   24   25 ar
    42   24   42 1
    43   25   26 ar
    44   25   43 1
    45   26   27 ar
    46   26   44 1
    47   27   45 1
    48   45   46 1
@<TRIPOS>MOLECULE
ZINC01287013
   44    46     0     0     0
SMALL
USER_CHARGES

@<TRIPOS>ATOM
      1 C1         -5.5891    6.0732    2.2152 C.3       1 <0>        -0.2051
      2 C2         -4.4422    5.2584    1.6139 C.3       1 <0>        -0.1366
      3 C3         -4.7938    3.7701    1.6624 C.3       1 <0>        -0.2064
      4 C4         -4.2219    5.6833    0.1607 C.3       1 <0>        -0.0125
      5 N1         -3.7695    7.0762    0.1224 N.am      1 <0>        -0.2604
      6 C5         -2.4379    7.3660    0.2927 C.2       1 <0>         0.2161
      7 C6         -2.0234    8.6654    0.2502 C.2       1 <0>        -0.2873
      8 C7         -2.9745    9.6791    0.0375 C.2       1 <0>         0.3464
      9 O1         -2.6276   10.8468   -0.0047 O.2       1 <0>        -0.3403
     10 N2         -4.2722    9.3509   -0.1197 N.am      1 <0>        -0.3399
     11 H1         -4.9508   10.0696   -0.2711 H         1 <0>         0.2794
     12 C8         -4.6619    8.0639   -0.0746 C.2       1 <0>         0.4072
     13 O2         -5.8374    7.7888   -0.2191 O.2       1 <0>        -0.3754
     14 N3         -1.5270    6.3524    0.4992 N.am      1 <0>        -0.3508
     15 C9         -0.8402    5.8411   -0.5417 C.2       1 <0>         0.3218
     16 O3         -1.0865    6.2098   -1.6702 O.2       1 <0>        -0.3177
     17 C10         0.2339    4.8114   -0.3029 C.3       1 <0>        -0.3233
     18 S1          0.9658    4.3249   -1.8853 S.3       1 <0>         0.3891
     19 C11         2.1532    3.1499   -1.3248 C.2       1 <0>        -0.1133
     20 N4          2.3497    2.8202   -0.0729 N.2       1 <0>        -0.2094
     21 C12         3.3442    1.8925   -0.0171 C.ar      1 <0>        -0.0622
     22 C13         3.9581    1.2000    1.0276 C.ar      1 <0>        -0.0741
     23 C14         4.9649    0.3006    0.7525 C.ar      1 <0>        -0.1344
     24 C15         5.3700    0.0796   -0.5548 C.ar      1 <0>        -0.1091
     25 C16         4.7708    0.7576   -1.5973 C.ar      1 <0>        -0.1014
     26 C17         3.7573    1.6658   -1.3385 C.ar      1 <0>        -0.0209
     27 O4          2.9943    2.4646   -2.1199 O.3       1 <0>        -0.0685
     28 H2         -5.3387    7.1335    2.1807 H         1 <0>         0.0778
     29 H3         -6.4997    5.8961    1.6429 H         1 <0>         0.0947
     30 H4         -5.7461    5.7705    3.2505 H         1 <0>         0.0751
     31 H5         -3.5316    5.4355    2.1863 H         1 <0>         0.0782
     32 H6         -3.9767    3.1897    1.2340 H         1 <0>         0.0702
     33 H7         -4.9507    3.4674    2.6977 H         1 <0>         0.0842
     34 H8         -5.7043    3.5931    1.0900 H         1 <0>         0.0849
     35 H9         -5.1573    5.5899   -0.3910 H         1 <0>         0.1373
     36 H10        -3.4662    5.0432   -0.2944 H         1 <0>         0.0990
     37 H11        -0.9797    8.9117    0.3776 H         1 <0>         0.1834
     38 H12        -1.3802    6.0069    1.3937 H         1 <0>         0.2495
     39 H13        -0.2022    3.9368    0.1798 H         1 <0>         0.1404
     40 H14         1.0060    5.2341    0.3399 H         1 <0>         0.1457
     41 H15         3.6453    1.3685    2.0475 H         1 <0>         0.1441
     42 H16         5.4410   -0.2357    1.5601 H         1 <0>         0.1392
     43 H17         6.1602   -0.6277   -0.7589 H         1 <0>         0.1416
     44 H18         5.0919    0.5805   -2.6131 H         1 <0>         0.1436
@<TRIPOS>BOND
     1    1    2 1
     2    1   28 1
     3    1   29 1
     4    1   30 1
     5    2    3 1
     6    2    4 1
     7    2   31 1
     8    3   32 1
     9    3   33 1
    10    3   34 1
    11    4    5 1
    12    4   35 1
    13    4   36 1
    14    5   12 am
    15    5    6 1
    16    6    7 2
    17    6   14 1
    18    7    8 1
    19    7   37 1
    20    8    9 2
    21    8   10 am
    22   10   11 1
    23   10   12 am
    24   12   13 2
    25   14   15 am
    26   14   38 1
    27   15   16 2
    28   15   17 1
    29   17   18 1
    30   17   39 1
    31   17   40 1
    32   18   19 1
    33   19   27 1
    34   19   20 2
    35   20   21 1
    36   21   26 ar
    37   21   22 ar
    38   22   23 ar
    39   22   41 1
    40   23   24 ar
    41   23   42 1
    42   24   25 ar
    43   24   43 1
    44   25   26 ar
    45   25   44 1
    46   26   27 1
@<TRIPOS>MOLECULE
ZINC01287014
   42    43     0     0     0
SMALL
USER_CHARGES

@<TRIPOS>ATOM
      1 C1          2.3618   -2.4283   -2.1245 C.3       1 <0>        -0.2147
      2 C2          1.1507   -2.7852   -1.2603 C.3       1 <0>        -0.1385
      3 C3          1.0045   -4.3066   -1.1906 C.3       1 <0>        -0.2049
      4 C4          1.3485   -2.2268    0.1504 C.3       1 <0>        -0.0080
      5 N1          1.3995   -0.7638    0.0937 N.am      1 <0>        -0.2613
      6 C5          2.6140   -0.1250    0.0381 C.2       1 <0>         0.2186
      7 C6          2.6532    1.2380   -0.0144 C.2       1 <0>        -0.2897
      8 C7          1.4447    1.9568   -0.0104 C.2       1 <0>         0.3466
      9 O1          1.4551    3.1747   -0.0571 O.2       1 <0>        -0.3416
     10 N2          0.2747    1.2900    0.0446 N.am      1 <0>        -0.3399
     11 H1         -0.5864    1.7985    0.0472 H         1 <0>         0.2790
     12 C8          0.2560   -0.0544    0.0960 C.2       1 <0>         0.4067
     13 O2         -0.8100   -0.6369    0.1456 O.2       1 <0>        -0.3756
     14 N3          3.7834   -0.8546    0.0350 N.am      1 <0>        -0.3589
     15 C9          4.4447   -1.0727    1.1890 C.2       1 <0>         0.3206
     16 O3          3.9659   -0.7057    2.2408 O.2       1 <0>        -0.3060
     17 C10         5.7792   -1.7726    1.1721 C.3       1 <0>        -0.3174
     18 S1          6.4092   -1.9144    2.8672 S.3       1 <0>         0.2551
     19 C11         7.9531   -2.7427    2.6803 C.ar      1 <0>        -0.2092
     20 C12         8.3930   -3.1193    1.4170 C.ar      1 <0>        -0.1540
     21 C13         9.6066   -3.7623    1.2737 C.ar      1 <0>        -0.1092
     22 C14        10.3780   -4.0431    2.3867 C.ar      1 <0>        -0.1333
     23 C15         9.9405   -3.6753    3.6461 C.ar      1 <0>        -0.1095
     24 C16         8.7312   -3.0260    3.7964 C.ar      1 <0>        -0.1063
     25 H2          2.1866   -2.7569   -3.1489 H         1 <0>         0.0881
     26 H3          2.5131   -1.3490   -2.1099 H         1 <0>         0.0692
     27 H4          3.2485   -2.9249   -1.7303 H         1 <0>         0.0631
     28 H5          0.2513   -2.3534   -1.6992 H         1 <0>         0.1172
     29 H6          0.1417   -4.5609   -0.5749 H         1 <0>         0.0854
     30 H7          0.8636   -4.7045   -2.1956 H         1 <0>         0.0833
     31 H8          1.9039   -4.7384   -0.7517 H         1 <0>         0.0712
     32 H9          2.2825   -2.6071    0.5641 H         1 <0>         0.1008
     33 H10         0.5175   -2.5371    0.7838 H         1 <0>         0.1303
     34 H11         3.5991    1.7573   -0.0589 H         1 <0>         0.1832
     35 H12         4.1305   -1.2111   -0.7976 H         1 <0>         0.2485
     36 H13         5.6620   -2.7680    0.7436 H         1 <0>         0.1212
     37 H14         6.4831   -1.1983    0.5697 H         1 <0>         0.1268
     38 H15         7.7889   -2.9047    0.5479 H         1 <0>         0.1211
     39 H16         9.9515   -4.0507    0.2917 H         1 <0>         0.1308
     40 H17        11.3245   -4.5504    2.2721 H         1 <0>         0.1326
     41 H18        10.5457   -3.8958    4.5130 H         1 <0>         0.1356
     42 H19         8.3902   -2.7391    4.7802 H         1 <0>         0.1428
@<TRIPOS>BOND
     1    1    2 1
     2    1   25 1
     3    1   26 1
     4    1   27 1
     5    2    3 1
     6    2    4 1
     7    2   28 1
     8    3   29 1
     9    3   30 1
    10    3   31 1
    11    4    5 1
    12    4   32 1
    13    4   33 1
    14    5   12 am
    15    5    6 1
    16    6    7 2
    17    6   14 1
    18    7    8 1
    19    7   34 1
    20    8    9 2
    21    8   10 am
    22   10   11 1
    23   10   12 am
    24   12   13 2
    25   14   15 am
    26   14   35 1
    27   15   16 2
    28   15   17 1
    29   17   18 1
    30   17   36 1
    31   17   37 1
    32   18   19 1
    33   19   24 ar
    34   19   20 ar
    35   20   21 ar
    36   20   38 1
    37   21   22 ar
    38   21   39 1
    39   22   23 ar
    40   22   40 1
    41   23   24 ar
    42   23   41 1
    43   24   42 1
@<TRIPOS>MOLECULE
ZINC01287026
   46    48     0     0     0
SMALL
USER_CHARGES

@<TRIPOS>ATOM
      1 C1          8.2575    4.0706    3.8523 C.ar      1 <0>        -0.1332
      2 C2          7.9919    2.8401    4.4250 C.ar      1 <0>        -0.1096
      3 C3          6.6875    2.4099    4.5670 C.ar      1 <0>        -0.1063
      4 C4          5.6410    3.2149    4.1331 C.ar      1 <0>        -0.2091
      5 C5          5.9120    4.4480    3.5524 C.ar      1 <0>        -0.1538
      6 C6          7.2186    4.8745    3.4197 C.ar      1 <0>        -0.1092
      7 S1          3.9749    2.6701    4.3122 S.3       1 <0>         0.2548
      8 C7          2.9923    4.0278    3.6181 C.3       1 <0>        -0.3172
      9 C8          1.5275    3.6860    3.7103 C.2       1 <0>         0.3224
     10 O1          1.1806    2.6306    4.1962 O.2       1 <0>        -0.3052
     11 N1          0.6030    4.5533    3.2526 N.am      1 <0>        -0.3564
     12 C9         -0.7381    4.2889    3.4308 C.2       1 <0>         0.2175
     13 C10        -1.3565    4.6269    4.5993 C.2       1 <0>        -0.2905
     14 C11        -2.7255    4.3449    4.7539 C.2       1 <0>         0.3467
     15 O2         -3.2992    4.6381    5.7885 O.2       1 <0>        -0.3423
     16 N2         -3.3990    3.7487    3.7502 N.am      1 <0>        -0.3402
     17 H1         -4.3717    3.5434    3.8588 H         1 <0>         0.2782
     18 C12        -2.7731    3.4275    2.6033 C.2       1 <0>         0.4101
     19 O3         -3.3998    2.8947    1.7080 O.2       1 <0>        -0.3796
     20 N3         -1.4627    3.6827    2.4342 N.am      1 <0>        -0.2593
     21 C13        -0.8064    3.3170    1.1765 C.3       1 <0>         0.0443
     22 C14        -0.9232    1.8068    0.9606 C.3       1 <0>        -0.1814
     23 C15        -0.2378    1.4249   -0.3529 C.3       1 <0>        -0.1540
     24 C16        -0.9128    2.1596   -1.5129 C.3       1 <0>        -0.1622
     25 C17        -0.7960    3.6698   -1.2970 C.3       1 <0>        -0.1535
     26 C18        -1.4814    4.0517    0.0165 C.3       1 <0>        -0.1825
     27 H2          9.2787    4.4046    3.7428 H         1 <0>         0.1325
     28 H3          8.8056    2.2150    4.7620 H         1 <0>         0.1356
     29 H4          6.4808    1.4489    5.0143 H         1 <0>         0.1427
     30 H5          5.1015    5.0743    3.2100 H         1 <0>         0.1213
     31 H6          7.4298    5.8350    2.9733 H         1 <0>         0.1308
     32 H7          3.2655    4.1770    2.5735 H         1 <0>         0.1216
     33 H8          3.1881    4.9417    4.1790 H         1 <0>         0.1267
     34 H9          0.8813    5.3636    2.7977 H         1 <0>         0.2451
     35 H10        -0.8026    5.1046    5.3939 H         1 <0>         0.1829
     36 H11         0.2460    3.5973    1.2209 H         1 <0>         0.1022
     37 H12        -1.9756    1.5264    0.9162 H         1 <0>         0.1258
     38 H13        -0.4423    1.2834    1.7869 H         1 <0>         0.0970
     39 H14        -0.3210    0.3490   -0.5067 H         1 <0>         0.0907
     40 H15         0.8146    1.7053   -0.3085 H         1 <0>         0.0757
     41 H16        -0.4245    1.8875   -2.4486 H         1 <0>         0.0812
     42 H17        -1.9652    1.8792   -1.5573 H         1 <0>         0.0937
     43 H18         0.2564    3.9501   -1.2525 H         1 <0>         0.0732
     44 H19        -1.2769    4.1932   -2.1233 H         1 <0>         0.0878
     45 H20        -1.3982    5.1276    0.1703 H         1 <0>         0.0764
     46 H21        -2.5338    3.7713   -0.0279 H         1 <0>         0.1286
@<TRIPOS>BOND
     1    1    6 ar
     2    1    2 ar
     3    1   27 1
     4    2    3 ar
     5    2   28 1
     6    3    4 ar
     7    3   29 1
     8    4    5 ar
     9    4    7 1
    10    5    6 ar
    11    5   30 1
    12    6   31 1
    13    7    8 1
    14    8    9 1
    15    8   32 1
    16    8   33 1
    17    9   10 2
    18    9   11 am
    19   11   12 1
    20   11   34 1
    21   12   20 1
    22   12   13 2
    23   13   14 1
    24   13   35 1
    25   14   15 2
    26   14   16 am
    27   16   17 1
    28   16   18 am
    29   18   19 2
    30   18   20 am
    31   20   21 1
    32   21   26 1
    33   21   22 1
    34   21   36 1
    35   22   23 1
    36   22   37 1
    37   22   38 1
    38   23   24 1
    39   23   39 1
    40   23   40 1
    41   24   25 1
    42   24   41 1
    43   24   42 1
    44   25   26 1
    45   25   43 1
    46   25   44 1
    47   26   45 1
    48   26   46 1
@<TRIPOS>MOLECULE
ZINC01287040
   42    43     0     0     0
SMALL
USER_CHARGES

@<TRIPOS>ATOM
      1 C1          7.4121    5.7289    1.8707 C.3       1 <0>        -0.2105
      2 C2          8.2559    5.3150    0.6634 C.3       1 <0>        -0.2185
      3 C3          9.7276    5.2333    1.0736 C.3       1 <0>        -0.1915
      4 S1          7.7034    3.6934    0.0669 S.3       1 <0>         0.1087
      5 C4          6.0115    3.9928   -0.5148 C.3       1 <0>        -0.2966
      6 C5          5.4275    2.7083   -1.0437 C.2       1 <0>         0.3187
      7 O1          6.0874    1.6912   -1.0297 O.2       1 <0>        -0.3022
      8 N1          4.1716    2.6899   -1.5324 N.am      1 <0>        -0.3597
      9 C6          3.6717    1.5403   -2.1055 C.2       1 <0>         0.2213
     10 C7          3.9103    1.2675   -3.4210 C.2       1 <0>        -0.2887
     11 C8          3.3877    0.0875   -3.9796 C.2       1 <0>         0.3473
     12 O2          3.5882   -0.1773   -5.1523 O.2       1 <0>        -0.3424
     13 N2          2.6641   -0.7489   -3.2094 N.am      1 <0>        -0.3388
     14 H1          2.2881   -1.5869   -3.6048 H         1 <0>         0.2785
     15 C9          2.4436   -0.4654   -1.9127 C.2       1 <0>         0.4109
     16 O3          1.7924   -1.2356   -1.2337 O.2       1 <0>        -0.3830
     17 N3          2.9290    0.6601   -1.3574 N.am      1 <0>        -0.2577
     18 C10         2.6687    0.9452    0.0558 C.3       1 <0>         0.0303
     19 C11         1.3452    1.6534    0.1898 C.ar      1 <0>        -0.1188
     20 C12         0.1750    0.9220    0.2704 C.ar      1 <0>        -0.0955
     21 C13        -1.0395    1.5717    0.3881 C.ar      1 <0>        -0.1268
     22 C14        -1.0829    2.9526    0.4348 C.ar      1 <0>        -0.1152
     23 C15         0.0874    3.6840    0.3551 C.ar      1 <0>        -0.1319
     24 C16         1.3015    3.0344    0.2326 C.ar      1 <0>        -0.1237
     25 H2          7.7440    6.7033    2.2291 H         1 <0>         0.0821
     26 H3          6.3636    5.7872    1.5784 H         1 <0>         0.0655
     27 H4          7.5275    4.9911    2.6647 H         1 <0>         0.0940
     28 H5          8.1405    6.0528   -0.1306 H         1 <0>         0.1017
     29 H6         10.3287    4.9384    0.2135 H         1 <0>         0.0900
     30 H7         10.0595    6.2077    1.4320 H         1 <0>         0.0854
     31 H8          9.8430    4.4955    1.8676 H         1 <0>         0.0896
     32 H9          6.0271    4.7391   -1.3091 H         1 <0>         0.1191
     33 H10         5.4017    4.3556    0.3126 H         1 <0>         0.1142
     34 H11         3.6194    3.4858   -1.4808 H         1 <0>         0.2458
     35 H12         4.4925    1.9480   -4.0246 H         1 <0>         0.1833
     36 H13         3.4620    1.5800    0.4505 H         1 <0>         0.1069
     37 H14         2.6389    0.0104    0.6156 H         1 <0>         0.1355
     38 H15         0.2092   -0.1570    0.2370 H         1 <0>         0.1596
     39 H16        -1.9541    1.0004    0.4466 H         1 <0>         0.1368
     40 H17        -2.0314    3.4601    0.5302 H         1 <0>         0.1327
     41 H18         0.0532    4.7629    0.3882 H         1 <0>         0.1300
     42 H19         2.2158    3.6058    0.1700 H         1 <0>         0.1133
@<TRIPOS>BOND
     1    1    2 1
     2    1   25 1
     3    1   26 1
     4    1   27 1
     5    2    3 1
     6    2    4 1
     7    2   28 1
     8    3   29 1
     9    3   30 1
    10    3   31 1
    11    4    5 1
    12    5    6 1
    13    5   32 1
    14    5   33 1
    15    6    7 2
    16    6    8 am
    17    8    9 1
    18    8   34 1
    19    9   17 1
    20    9   10 2
    21   10   11 1
    22   10   35 1
    23   11   12 2
    24   11   13 am
    25   13   14 1
    26   13   15 am
    27   15   16 2
    28   15   17 am
    29   17   18 1
    30   18   19 1
    31   18   36 1
    32   18   37 1
    33   19   24 ar
    34   19   20 ar
    35   20   21 ar
    36   20   38 1
    37   21   22 ar
    38   21   39 1
    39   22   23 ar
    40   22   40 1
    41   23   24 ar
    42   23   41 1
    43   24   42 1
@<TRIPOS>MOLECULE
ZINC01287047
   43    45     0     0     0
SMALL
USER_CHARGES

@<TRIPOS>ATOM
      1 C1          0.0975   -4.2843    0.1612 C.3       1 <0>        -0.1747
      2 C2          0.0759   -2.7776    0.1804 C.ar      1 <0>        -0.0791
      3 C3         -1.1278   -2.1062    0.2947 C.ar      1 <0>        -0.1107
      4 C4         -1.1514   -0.7257    0.3121 C.ar      1 <0>        -0.1023
      5 C5          0.0364   -0.0109    0.2151 C.ar      1 <0>        -0.2148
      6 C6          1.2436   -0.6888    0.0951 C.ar      1 <0>        -0.1491
      7 C7          1.2601   -2.0695    0.0841 C.ar      1 <0>        -0.1101
      8 S1          0.0112    1.7508    0.2370 S.3       1 <0>         0.2514
      9 C8          1.7580    2.2166    0.0878 C.3       1 <0>        -0.3165
     10 C9          1.8797    3.7186    0.0938 C.2       1 <0>         0.3215
     11 O1          0.8861    4.4070    0.1893 O.2       1 <0>        -0.3092
     12 N1          3.0930    4.2969   -0.0070 N.am      1 <0>        -0.3557
     13 C10         3.1971    5.6679   -0.1034 C.2       1 <0>         0.2197
     14 C11         3.0822    6.2831   -1.3160 C.2       1 <0>        -0.2842
     15 C12         3.1881    7.6836   -1.3841 C.2       1 <0>         0.3467
     16 O2          3.0843    8.2553   -2.4556 O.2       1 <0>        -0.3394
     17 N2          3.4106    8.3892   -0.2576 N.am      1 <0>        -0.3384
     18 H1          3.4904    9.3849   -0.3036 H         1 <0>         0.2798
     19 C13         3.5262    7.7644    0.9284 C.2       1 <0>         0.4109
     20 O3          3.7272    8.4191    1.9330 O.2       1 <0>        -0.3779
     21 N3          3.4231    6.4258    1.0194 N.am      1 <0>        -0.2633
     22 C14         3.5533    5.7728    2.3243 C.3       1 <0>         0.0774
     23 C15         5.0105    5.5282    2.6205 C.2       1 <0>        -0.1114
     24 C16         5.8384    6.3794    3.2526 C.2       1 <0>        -0.1630
     25 C17         7.1025    5.7496    3.3168 C.2       1 <0>        -0.2197
     26 C18         6.9736    4.5546    2.7128 C.2       1 <0>        -0.0908
     27 O4          5.7044    4.4259    2.2931 O.3       1 <0>        -0.0718
     28 H2          0.0120   -4.6358   -0.8670 H         1 <0>         0.0881
     29 H3          1.0344   -4.6398    0.5901 H         1 <0>         0.0819
     30 H4         -0.7385   -4.6671    0.7468 H         1 <0>         0.0835
     31 H5         -2.0505   -2.6624    0.3701 H         1 <0>         0.1361
     32 H6         -2.0918   -0.2022    0.4014 H         1 <0>         0.1425
     33 H7          2.1683   -0.1364    0.0150 H         1 <0>         0.1218
     34 H8          2.1982   -2.5970   -0.0047 H         1 <0>         0.1316
     35 H9          2.3172    1.8034    0.9273 H         1 <0>         0.1238
     36 H10         2.1605    1.8232   -0.8457 H         1 <0>         0.1270
     37 H11         3.8928    3.7482   -0.0117 H         1 <0>         0.2517
     38 H12         2.9085    5.7028   -2.2101 H         1 <0>         0.1845
     39 H13         3.1285    6.4148    3.0959 H         1 <0>         0.1502
     40 H14         3.0210    4.8217    2.3093 H         1 <0>         0.1141
     41 H15         5.5854    7.3557    3.6390 H         1 <0>         0.1768
     42 H16         8.0005    6.1524    3.7615 H         1 <0>         0.1613
     43 H17         7.7577    3.8226    2.5871 H         1 <0>         0.1996
@<TRIPOS>BOND
     1    1    2 1
     2    1   28 1
     3    1   29 1
     4    1   30 1
     5    2    7 ar
     6    2    3 ar
     7    3    4 ar
     8    3   31 1
     9    4    5 ar
    10    4   32 1
    11    5    6 ar
    12    5    8 1
    13    6    7 ar
    14    6   33 1
    15    7   34 1
    16    8    9 1
    17    9   10 1
    18    9   35 1
    19    9   36 1
    20   10   11 2
    21   10   12 am
    22   12   13 1
    23   12   37 1
    24   13   21 1
    25   13   14 2
    26   14   15 1
    27   14   38 1
    28   15   16 2
    29   15   17 am
    30   17   18 1
    31   17   19 am
    32   19   20 2
    33   19   21 am
    34   21   22 1
    35   22   23 1
    36   22   39 1
    37   22   40 1
    38   23   27 1
    39   23   24 2
    40   24   25 1
    41   24   41 1
    42   25   26 2
    43   25   42 1
    44   26   27 1
    45   26   43 1
@<TRIPOS>MOLECULE
ZINC01287224
   47    49     0     0     0
SMALL
USER_CHARGES

@<TRIPOS>ATOM
      1 C1          0.1721    9.8525   -2.3520 C.ar      1 <0>        -0.1906
      2 C2          0.2600   11.1800   -2.7230 C.ar      1 <0>        -0.1192
      3 C3          0.0690   11.5445   -4.0451 C.ar      1 <0>         0.0444
      4 C4         -0.2052   10.5790   -4.9989 C.ar      1 <0>        -0.1173
      5 C5         -0.2889    9.2497   -4.6333 C.ar      1 <0>        -0.1733
      6 C6         -0.0977    8.8818   -3.3079 C.ar      1 <0>         0.1070
      7 N1         -0.1823    7.5368   -2.9354 N.pl3     1 <0>        -0.3709
      8 C7          0.0196    7.1499   -1.5369 C.3       1 <0>        -0.0198
      9 C8         -0.1236    5.6557   -1.4033 C.2       1 <0>         0.2994
     10 O1         -0.3699    4.9806   -2.3799 O.2       1 <0>        -0.3252
     11 N2          0.0222    5.0698   -0.1983 N.am      1 <0>        -0.3554
     12 C9         -0.0062    3.6958   -0.0922 C.2       1 <0>         0.2123
     13 C10        -1.1967    3.0391    0.0242 C.2       1 <0>        -0.2848
     14 C11        -1.1961    1.6366    0.1248 C.2       1 <0>         0.3457
     15 O2         -2.2476    1.0282    0.2242 O.2       1 <0>        -0.3405
     16 N3         -0.0249    0.9698    0.1151 N.am      1 <0>        -0.3401
     17 H1         -0.0210   -0.0271    0.1940 H         1 <0>         0.2788
     18 C12         1.1391    1.6347    0.0001 C.2       1 <0>         0.4103
     19 O3          2.1846    1.0142   -0.0113 O.2       1 <0>        -0.3789
     20 N4          1.1635    2.9762   -0.1030 N.am      1 <0>        -0.2610
     21 C13         2.4459    3.6735   -0.2270 C.3       1 <0>         0.0436
     22 C14         3.1688    3.1914   -1.4864 C.3       1 <0>        -0.1814
     23 C15         4.5082    3.9196   -1.6159 C.3       1 <0>        -0.1542
     24 C16         5.3708    3.6230   -0.3876 C.3       1 <0>        -0.1620
     25 C17         4.6479    4.1051    0.8718 C.3       1 <0>        -0.1537
     26 C18         3.3086    3.3769    1.0013 C.3       1 <0>        -0.1820
     27 F1          0.1508   12.8441   -4.4050 F         1 <0>        -0.1100
     28 H2          0.3170    9.5691   -1.3199 H         1 <0>         0.1292
     29 H3          0.4741   11.9347   -1.9808 H         1 <0>         0.1435
     30 H4         -0.3535   10.8655   -6.0296 H         1 <0>         0.1465
     31 H5         -0.5024    8.4969   -5.3777 H         1 <0>         0.1407
     32 H6         -0.3747    6.8598   -3.6029 H         1 <0>         0.2557
     33 H7         -0.7250    7.6435   -0.9122 H         1 <0>         0.1017
     34 H8          1.0178    7.4493   -1.2175 H         1 <0>         0.0994
     35 H9          0.1471    5.6150    0.5941 H         1 <0>         0.2467
     36 H10        -2.1264    3.5886    0.0345 H         1 <0>         0.1839
     37 H11         2.2705    4.7470   -0.2972 H         1 <0>         0.1006
     38 H12         3.3442    2.1179   -1.4162 H         1 <0>         0.1271
     39 H13         2.5543    3.4027   -2.3614 H         1 <0>         0.0926
     40 H14         4.3328    4.9931   -1.6861 H         1 <0>         0.0749
     41 H15         5.0232    3.5762   -2.5131 H         1 <0>         0.0910
     42 H16         6.3250    4.1418   -0.4799 H         1 <0>         0.0823
     43 H17         5.5462    2.5495   -0.3174 H         1 <0>         0.0942
     44 H18         4.4725    5.1786    0.8016 H         1 <0>         0.0733
     45 H19         5.2625    3.8938    1.7468 H         1 <0>         0.0890
     46 H20         2.7936    3.7203    1.8985 H         1 <0>         0.0775
     47 H21         3.4840    2.3034    1.0715 H         1 <0>         0.1291
@<TRIPOS>BOND
     1    1    6 ar
     2    1    2 ar
     3    1   28 1
     4    2    3 ar
     5    2   29 1
     6    3    4 ar
     7    3   27 1
     8    4    5 ar
     9    4   30 1
    10    5    6 ar
    11    5   31 1
    12    6    7 1
    13    7    8 1
    14    7   32 1
    15    8    9 1
    16    8   33 1
    17    8   34 1
    18    9   10 2
    19    9   11 am
    20   11   12 1
    21   11   35 1
    22   12   20 1
    23   12   13 2
    24   13   14 1
    25   13   36 1
    26   14   15 2
    27   14   16 am
    28   16   17 1
    29   16   18 am
    30   18   19 2
    31   18   20 am
    32   20   21 1
    33   21   26 1
    34   21   22 1
    35   21   37 1
    36   22   23 1
    37   22   38 1
    38   22   39 1
    39   23   24 1
    40   23   40 1
    41   23   41 1
    42   24   25 1
    43   24   42 1
    44   24   43 1
    45   25   26 1
    46   25   44 1
    47   25   45 1
    48   26   46 1
    49   26   47 1
@<TRIPOS>MOLECULE
ZINC01290658
   41    43     0     0     0
SMALL
USER_CHARGES

@<TRIPOS>ATOM
      1 C1         -2.8290   -0.0505    0.1064 C.3       1 <0>        -0.1694
      2 C2         -2.5801    1.4358    0.0920 C.2       1 <0>        -0.0508
      3 C3         -3.6099    2.2972    0.1066 C.2       1 <0>        -0.2848
      4 S1         -2.8142    3.8924    0.0809 S.3       1 <0>         0.4017
      5 C4         -1.1233    3.3557    0.0513 C.2       1 <0>        -0.1258
      6 C5         -1.2248    1.9528    0.0567 C.2       1 <0>        -0.2301
      7 C6          0.0194    1.2418    0.0420 C.2       1 <0>         0.3611
      8 O1          0.0361    0.0231    0.0487 O.2       1 <0>        -0.3606
      9 N1          1.1691    1.9412    0.0152 N.am      1 <0>        -0.2389
     10 C7          1.1698    3.2990    0.0069 C.2       1 <0>         0.0948
     11 N2          0.0528    3.9757    0.0244 N.2       1 <0>        -0.1849
     12 C8          2.4457    1.2228   -0.0061 C.3       1 <0>        -0.0530
     13 C9          2.8551    0.9683   -1.4340 C.2       1 <0>         0.2882
     14 O2          2.1501    1.3495   -2.3441 O.2       1 <0>        -0.3444
     15 N3          4.0049    0.3171   -1.6994 N.am      1 <0>        -0.3103
     16 C10         4.3382    0.0001   -3.0142 C.ar      1 <0>         0.1288
     17 C11         4.0035    0.8658   -4.0469 C.ar      1 <0>        -0.1411
     18 C12         4.3385    0.5518   -5.3485 C.ar      1 <0>        -0.0839
     19 C13         5.0010   -0.6307   -5.6364 C.ar      1 <0>        -0.1546
     20 C14         5.3365   -1.5044   -4.6249 C.ar      1 <0>        -0.0865
     21 C15         5.0084   -1.1980   -3.3022 C.ar      1 <0>        -0.1704
     22 C16         5.3641   -2.1291   -2.2146 C.2       1 <0>         0.3625
     23 O3          4.9908   -1.9083   -1.0787 O.2       1 <0>        -0.3956
     24 N4          6.1030   -3.2246   -2.4802 N.am      1 <0>        -0.4221
     25 C17        -5.0848    1.9893    0.1374 C.3       1 <0>        -0.1231
     26 H1         -2.9086   -0.4154   -0.9176 H         1 <0>         0.0927
     27 H2         -2.0016   -0.5526    0.6078 H         1 <0>         0.1144
     28 H3         -3.7568   -0.2583    0.6393 H         1 <0>         0.0722
     29 H4          2.1107    3.8288   -0.0148 H         1 <0>         0.1916
     30 H5          3.2088    1.8231    0.4892 H         1 <0>         0.1101
     31 H6          2.3363    0.2719    0.5154 H         1 <0>         0.1591
     32 H7          4.6003    0.0691   -0.9749 H         1 <0>         0.2617
     33 H8          3.4835    1.7874   -3.8311 H         1 <0>         0.1701
     34 H9          4.0794    1.2301   -6.1480 H         1 <0>         0.1384
     35 H10         5.2554   -0.8690   -6.6586 H         1 <0>         0.1341
     36 H11         5.8522   -2.4251   -4.8547 H         1 <0>         0.1260
     37 H12         6.4009   -3.4007   -3.3863 H         1 <0>         0.2192
     38 H13         6.3370   -3.8368   -1.7651 H         1 <0>         0.2330
     39 H14        -5.6504    2.9211    0.1420 H         1 <0>         0.0848
     40 H15        -5.3527    1.4061   -0.7436 H         1 <0>         0.0935
     41 H16        -5.3181    1.4182    1.0360 H         1 <0>         0.0922
@<TRIPOS>BOND
     1    1    2 1
     2    1   26 1
     3    1   27 1
     4    1   28 1
     5    2    6 1
     6    2    3 2
     7    3    4 1
     8    3   25 1
     9    4    5 1
    10    5   11 1
    11    5    6 2
    12    6    7 1
    13    7    8 2
    14    7    9 am
    15    9   10 1
    16    9   12 1
    17   10   11 2
    18   10   29 1
    19   12   13 1
    20   12   30 1
    21   12   31 1
    22   13   14 2
    23   13   15 am
    24   15   16 1
    25   15   32 1
    26   16   21 ar
    27   16   17 ar
    28   17   18 ar
    29   17   33 1
    30   18   19 ar
    31   18   34 1
    32   19   20 ar
    33   19   35 1
    34   20   21 ar
    35   20   36 1
    36   21   22 1
    37   22   23 2
    38   22   24 am
    39   24   37 1
    40   24   38 1
    41   25   39 1
    42   25   40 1
    43   25   41 1
@<TRIPOS>MOLECULE
ZINC01314018
   39    41     0     0     0
SMALL
USER_CHARGES

@<TRIPOS>ATOM
      1 C1          1.5553    2.0709   -0.2673 C.3       1 <0>        -0.2050
      2 C2          0.1105    1.5680   -0.2362 C.3       1 <0>        -0.0880
      3 C3          0.1039    0.0617   -0.1918 C.2       1 <0>        -0.2361
      4 C4          0.0812   -0.6844   -1.3649 C.2       1 <0>         0.2086
      5 N1          0.0875   -2.0110   -1.2884 N.2       1 <0>        -0.2871
      6 C5          0.1031   -2.6225   -0.1128 C.2       1 <0>        -0.0014
      7 N2          0.1191   -1.9430    1.0248 N.am      1 <0>        -0.2018
      8 C6          0.1200   -0.6141    1.0233 C.2       1 <0>         0.2852
      9 O1          0.1370    0.0735    2.1911 O.2       1 <0>        -0.4350
     10 S1          0.1024   -4.3838   -0.0610 S.3       1 <0>         0.2636
     11 C7          0.0783   -4.7503   -1.8333 C.3       1 <0>        -0.2578
     12 H1          0.9010   -4.2451   -2.3396 H         1 <0>         0.1666
     13 C8          0.1458   -6.2722   -2.0738 C.3       1 <0>        -0.1880
     14 C9         -1.1509   -6.5756   -2.7923 C.2       1 <0>         0.3143
     15 O2         -1.5041   -7.6717   -3.1707 O.2       1 <0>        -0.2849
     16 N3         -1.8464   -5.4417   -2.9434 N.am      1 <0>        -0.2673
     17 C10        -1.2478   -4.3499   -2.4420 C.2       1 <0>         0.3192
     18 O3         -1.6962   -3.2239   -2.4700 O.2       1 <0>        -0.2650
     19 C11        -3.0970   -5.3972   -3.5756 C.ar      1 <0>         0.0322
     20 C12        -3.1978   -5.6520   -4.9365 C.ar      1 <0>        -0.1061
     21 C13        -4.4318   -5.6117   -5.5557 C.ar      1 <0>        -0.1202
     22 C14        -5.5648   -5.3085   -4.8232 C.ar      1 <0>        -0.1146
     23 C15        -5.4667   -5.0491   -3.4686 C.ar      1 <0>        -0.1194
     24 C16        -4.2361   -5.0926   -2.8429 C.ar      1 <0>        -0.1047
     25 O4          0.0644   -0.0665   -2.5711 O.3       1 <0>        -0.2165
     26 H2          2.0775    1.7315    0.6273 H         1 <0>         0.0842
     27 H3          2.0574    1.6790   -1.1518 H         1 <0>         0.0670
     28 H4          1.5601    3.1604   -0.2994 H         1 <0>         0.0726
     29 H5         -0.4117    1.9074   -1.1308 H         1 <0>         0.0901
     30 H6         -0.3916    1.9598    0.6483 H         1 <0>         0.1116
     31 H7          0.1307   -2.4360    1.8947 H         1 <0>         0.2641
     32 H8          1.0004   -6.5239   -2.7019 H         1 <0>         0.1401
     33 H9          0.1966   -6.8085   -1.1261 H         1 <0>         0.1373
     34 H10        -2.3128   -5.8853   -5.5098 H         1 <0>         0.1387
     35 H11        -4.5114   -5.8136   -6.6137 H         1 <0>         0.1376
     36 H12        -6.5282   -5.2738   -5.3102 H         1 <0>         0.1352
     37 H13        -6.3534   -4.8125   -2.8991 H         1 <0>         0.1385
     38 H14        -4.1601   -4.8895   -1.7849 H         1 <0>         0.1408
     39 H15         0.0493   -0.7537   -3.2974 H         1 <0>         0.2517
@<TRIPOS>BOND
     1    1    2 1
     2    1   26 1
     3    1   27 1
     4    1   28 1
     5    2    3 1
     6    2   29 1
     7    2   30 1
     8    3    8 1
     9    3    4 2
    10    4   25 1
    11    4    5 1
    12    5    6 2
    13    6   10 1
    14    6    7 1
    15    7   31 1
    16    7    8 am
    17    8    9 2
    18   10   11 1
    19   11   12 1
    20   11   17 1
    21   11   13 1
    22   13   14 1
    23   13   32 1
    24   13   33 1
    25   14   15 2
    26   14   16 am
    27   16   17 am
    28   16   19 1
    29   17   18 2
    30   19   24 ar
    31   19   20 ar
    32   20   21 ar
    33   20   34 1
    34   21   22 ar
    35   21   35 1
    36   22   23 ar
    37   22   36 1
    38   23   24 ar
    39   23   37 1
    40   24   38 1
    41   25   39 1
@<TRIPOS>MOLECULE
ZINC01314019
   39    41     0     0     0
SMALL
USER_CHARGES

@<TRIPOS>ATOM
      1 C1          8.8947   -3.1902   -1.8582 C.3       1 <0>        -0.2049
      2 C2          8.4550   -4.5108   -1.2228 C.3       1 <0>        -0.0883
      3 C3          6.9582   -4.6473   -1.3329 C.2       1 <0>        -0.2319
      4 C4          6.3791   -5.2562   -2.4408 C.2       1 <0>         0.1962
      5 N1          5.0561   -5.3643   -2.5021 N.2       1 <0>        -0.2821
      6 C5          4.2911   -4.8908   -1.5291 C.2       1 <0>        -0.0049
      7 N2          4.8086   -4.2958   -0.4640 N.am      1 <0>        -0.2147
      8 C6          6.1242   -4.1625   -0.3315 C.2       1 <0>         0.2894
      9 O1          6.6460   -3.5574    0.7632 O.2       1 <0>        -0.4336
     10 S1          2.5414   -5.0566   -1.6545 S.3       1 <0>         0.3222
     11 C7          2.0387   -4.2633   -0.1073 C.3       1 <0>        -0.3212
     12 H1          2.5171   -4.7478    0.7439 H         1 <0>         0.1543
     13 C8          0.5039   -4.2880    0.0417 C.3       1 <0>        -0.1759
     14 C9          0.1286   -2.8229    0.0891 C.2       1 <0>         0.3131
     15 O2         -0.9977   -2.3899    0.2061 O.2       1 <0>        -0.2743
     16 N3          1.2371   -2.0805   -0.0216 N.am      1 <0>        -0.2534
     17 C10         2.3688   -2.7868   -0.1341 C.2       1 <0>         0.3092
     18 O3          3.4817   -2.3178   -0.2402 O.2       1 <0>        -0.2798
     19 C11         1.2153   -0.6787   -0.0146 C.ar      1 <0>         0.0238
     20 C12         0.6351    0.0132   -1.0691 C.ar      1 <0>        -0.1018
     21 C13         0.6147    1.3942   -1.0591 C.ar      1 <0>        -0.1198
     22 C14         1.1713    2.0877   -0.0002 C.ar      1 <0>        -0.1109
     23 C15         1.7499    1.4013    1.0516 C.ar      1 <0>        -0.1176
     24 C16         1.7733    0.0203    1.0472 C.ar      1 <0>        -0.1015
     25 O4          7.1546   -5.7430   -3.4401 O.3       1 <0>        -0.2187
     26 H2          8.6051   -3.1784   -2.9089 H         1 <0>         0.0685
     27 H3          8.4150   -2.3601   -1.3397 H         1 <0>         0.0874
     28 H4          9.9773   -3.0914   -1.7785 H         1 <0>         0.0709
     29 H5          8.7446   -4.5225   -0.1720 H         1 <0>         0.1104
     30 H6          8.9347   -5.3409   -1.7413 H         1 <0>         0.0872
     31 H7          4.2020   -3.9430    0.2484 H         1 <0>         0.2697
     32 H8          0.0431   -4.7780   -0.8159 H         1 <0>         0.1428
     33 H9          0.2163   -4.7843    0.9686 H         1 <0>         0.1432
     34 H10         0.2005   -0.5279   -1.8966 H         1 <0>         0.1403
     35 H11         0.1675    1.9332   -1.8814 H         1 <0>         0.1391
     36 H12         1.1542    3.1676    0.0054 H         1 <0>         0.1365
     37 H13         2.1838    1.9456    1.8772 H         1 <0>         0.1407
     38 H14         2.2250   -0.5153    1.8691 H         1 <0>         0.1413
     39 H15         6.5731   -6.1426   -4.1488 H         1 <0>         0.2492
@<TRIPOS>BOND
     1    1    2 1
     2    1   26 1
     3    1   27 1
     4    1   28 1
     5    2    3 1
     6    2   29 1
     7    2   30 1
     8    3    8 1
     9    3    4 2
    10    4   25 1
    11    4    5 1
    12    5    6 2
    13    6   10 1
    14    6    7 1
    15    7   31 1
    16    7    8 am
    17    8    9 2
    18   10   11 1
    19   11   12 1
    20   11   17 1
    21   11   13 1
    22   13   14 1
    23   13   32 1
    24   13   33 1
    25   14   15 2
    26   14   16 am
    27   16   17 am
    28   16   19 1
    29   17   18 2
    30   19   24 ar
    31   19   20 ar
    32   20   21 ar
    33   20   34 1
    34   21   22 ar
    35   21   35 1
    36   22   23 ar
    37   22   36 1
    38   23   24 ar
    39   23   37 1
    40   24   38 1
    41   25   39 1
@<TRIPOS>MOLECULE
ZINC01323132
   44    47     0     0     0
SMALL
USER_CHARGES

@<TRIPOS>ATOM
      1 C1         -0.8386   -0.7374   -6.4546 C.ar      1 <0>        -0.1671
      2 C2         -1.3675    0.1785   -5.5591 C.ar      1 <0>        -0.0812
      3 C3         -0.6582    0.5443   -4.4332 C.ar      1 <0>        -0.1573
      4 C4          0.5980    0.0019   -4.1955 C.ar      1 <0>         0.1410
      5 C5          1.1362   -0.9259   -5.0998 C.ar      1 <0>        -0.1859
      6 C6          0.4040   -1.2898   -6.2325 C.ar      1 <0>        -0.0831
      7 C7          2.4667   -1.5139   -4.8558 C.2       1 <0>         0.3663
      8 O1          3.0616   -1.2651   -3.8249 O.2       1 <0>        -0.3966
      9 N1          3.0232   -2.3268   -5.7756 N.am      1 <0>        -0.4231
     10 N2          1.3171    0.3727   -3.0629 N.am      1 <0>        -0.3126
     11 C8          1.0868    1.5654   -2.4790 C.2       1 <0>         0.3880
     12 O2          0.3248    2.3598   -2.9978 O.2       1 <0>        -0.3398
     13 C9          1.7546    1.9058   -1.2185 C.2       1 <0>        -0.3322
     14 C10         3.0170    2.5607   -1.2282 C.2       1 <0>         0.3271
     15 O3          3.5713    2.8452   -2.2760 O.2       1 <0>        -0.3083
     16 C11         3.6331    2.8834    0.0726 C.ar      1 <0>        -0.1690
     17 C12         4.8691    3.5287    0.1272 C.ar      1 <0>        -0.0417
     18 C13         5.4325    3.8250    1.3478 C.ar      1 <0>        -0.1636
     19 C14         4.7714    3.4833    2.5178 C.ar      1 <0>        -0.0768
     20 C15         3.5497    2.8456    2.4776 C.ar      1 <0>        -0.1273
     21 C16         2.9608    2.5325    1.2565 C.ar      1 <0>         0.1089
     22 N3          1.7380    1.8914    1.1893 N.pl3     1 <0>        -0.2022
     23 C17         1.1602    1.5923   -0.0021 C.2       1 <0>         0.2634
     24 O4         -0.0364    0.9734   -0.0055 O.3       1 <0>        -0.2896
     25 C18         1.0290    1.5020    2.4147 C.3       1 <0>        -0.0304
     26 C19         1.3361    2.5022    3.5301 C.3       1 <0>        -0.1748
     27 C20         2.8580    2.4969    3.7718 C.3       1 <0>        -0.1189
     28 H1         -1.4033   -1.0198   -7.3307 H         1 <0>         0.1305
     29 H2         -2.3424    0.6059   -5.7416 H         1 <0>         0.1351
     30 H3         -1.0789    1.2559   -3.7382 H         1 <0>         0.1793
     31 H4          0.8113   -2.0037   -6.9331 H         1 <0>         0.1222
     32 H5          2.5486   -2.5252   -6.5980 H         1 <0>         0.2189
     33 H6          3.8982   -2.7135   -5.6151 H         1 <0>         0.2311
     34 H7          1.9839   -0.2273   -2.6938 H         1 <0>         0.2711
     35 H8          5.3824    3.7943   -0.7852 H         1 <0>         0.1617
     36 H9          6.3895    4.3234    1.3941 H         1 <0>         0.1382
     37 H10         5.2191    3.7191    3.4719 H         1 <0>         0.1343
     38 H11        -0.0305    0.0065   -0.0104 H         1 <0>         0.2569
     39 H12        -0.0441    1.4897    2.2242 H         1 <0>         0.1169
     40 H13         1.3533    0.5073    2.7205 H         1 <0>         0.0899
     41 H14         1.0051    3.4968    3.2311 H         1 <0>         0.1075
     42 H15         0.8195    2.2034    4.4422 H         1 <0>         0.0990
     43 H16         3.1832    1.5117    4.1061 H         1 <0>         0.0957
     44 H17         3.1029    3.2415    4.5292 H         1 <0>         0.0982
@<TRIPOS>BOND
     1    1    6 ar
     2    1    2 ar
     3    1   28 1
     4    2    3 ar
     5    2   29 1
     6    3    4 ar
     7    3   30 1
     8    4    5 ar
     9    4   10 1
    10    5    6 ar
    11    5    7 1
    12    6   31 1
    13    7    8 2
    14    7    9 am
    15    9   32 1
    16    9   33 1
    17   10   11 am
    18   10   34 1
    19   11   12 2
    20   11   13 1
    21   13   23 2
    22   13   14 1
    23   14   15 2
    24   14   16 1
    25   16   21 ar
    26   16   17 ar
    27   17   18 ar
    28   17   35 1
    29   18   19 ar
    30   18   36 1
    31   19   20 ar
    32   19   37 1
    33   20   27 1
    34   20   21 ar
    35   21   22 1
    36   22   23 1
    37   22   25 1
    38   23   24 1
    39   24   38 1
    40   25   26 1
    41   25   39 1
    42   25   40 1
    43   26   27 1
    44   26   41 1
    45   26   42 1
    46   27   43 1
    47   27   44 1
@<TRIPOS>MOLECULE
ZINC01324658
   44    46     0     0     0
SMALL
USER_CHARGES

@<TRIPOS>ATOM
      1 C1          7.3076   -3.4375   -6.4179 C.2       1 <0>        -0.2244
      2 C2          6.1674   -2.6414   -6.6727 C.2       1 <0>        -0.1923
      3 C3          6.5300   -1.3631   -6.4636 C.2       1 <0>        -0.0913
      4 O1          7.8236   -1.3424   -6.1033 O.3       1 <0>        -0.0499
      5 C4          8.2988   -2.5980   -6.0682 C.2       1 <0>        -0.0874
      6 C5          5.6377   -0.1580   -6.6143 C.3       1 <0>         0.0797
      7 N1          4.9751    0.1217   -5.3380 N.am      1 <0>        -0.3865
      8 C6          4.1239    1.1615   -5.2342 C.2       1 <0>         0.3404
      9 O2          3.9061    1.8673   -6.1996 O.2       1 <0>        -0.3602
     10 C7          3.4552    1.4438   -3.9462 C.ar      1 <0>        -0.0732
     11 C8          2.5732    2.5198   -3.8354 C.ar      1 <0>        -0.0910
     12 C9          1.9521    2.7774   -2.6308 C.ar      1 <0>        -0.0365
     13 C10         2.2019    1.9718   -1.5340 C.ar      1 <0>        -0.7392
     14 C11         3.0791    0.9067   -1.6357 C.ar      1 <0>        -0.0400
     15 C12         3.7028    0.6350   -2.8359 C.ar      1 <0>        -0.1310
     16 S1          1.4049    2.3082    0.0010 S.o2      1 <0>         2.7569
     17 O3          1.0570    3.6858   -0.0153 O.2       1 <0>        -0.9134
     18 O4          2.2220    1.7409    1.0158 O.2       1 <0>        -0.9117
     19 N2         -0.0178    1.4608    0.0101 N.pl3     1 <0>        -0.8747
     20 C13         0.0021   -0.0041    0.0020 C.3       1 <0>         0.0391
     21 C14        -0.2020   -0.5274   -1.4347 C.3       1 <0>        -0.1867
     22 C15        -1.0733   -1.7956   -1.2569 C.3       1 <0>        -0.1615
     23 C16        -2.0405   -1.3887   -0.1176 C.3       1 <0>        -0.1644
     24 C17        -1.1669   -0.5517    0.8395 C.3       1 <0>        -0.1658
     25 H1          7.3706   -4.5133   -6.4897 H         1 <0>         0.1590
     26 H2          5.1922   -2.9924   -6.9764 H         1 <0>         0.1596
     27 H3          9.3069   -2.8848   -5.8075 H         1 <0>         0.2014
     28 H4          4.8859   -0.3558   -7.3783 H         1 <0>         0.1165
     29 H5          6.2372    0.7034   -6.9088 H         1 <0>         0.1121
     30 H6          5.1489   -0.4415   -4.5676 H         1 <0>         0.2313
     31 H7          2.3771    3.1492   -4.6909 H         1 <0>         0.1642
     32 H8          1.2692    3.6096   -2.5438 H         1 <0>         0.1568
     33 H9          3.2729    0.2842   -0.7747 H         1 <0>         0.1522
     34 H10         4.3841   -0.1992   -2.9151 H         1 <0>         0.1330
     35 H11        -0.8643    1.9343    0.0167 H         1 <0>         0.2464
     36 H12         0.9494   -0.3666    0.4012 H         1 <0>         0.1126
     37 H13        -0.7251    0.2131   -2.0398 H         1 <0>         0.0965
     38 H14         0.7561   -0.7832   -1.8872 H         1 <0>         0.0859
     39 H15        -0.4608   -2.6463   -0.9582 H         1 <0>         0.0873
     40 H16        -1.6244   -2.0169   -2.1709 H         1 <0>         0.0888
     41 H17        -2.4242   -2.2731    0.3912 H         1 <0>         0.0874
     42 H18        -2.8606   -0.7873   -0.5099 H         1 <0>         0.0867
     43 H19        -0.7870   -1.1806    1.6446 H         1 <0>         0.0944
     44 H20        -1.7490    0.2724    1.2519 H         1 <0>         0.0927
@<TRIPOS>BOND
     1    1    5 2
     2    1    2 1
     3    1   25 1
     4    2    3 2
     5    2   26 1
     6    3    4 1
     7    3    6 1
     8    4    5 1
     9    5   27 1
    10    6    7 1
    11    6   28 1
    12    6   29 1
    13    7    8 am
    14    7   30 1
    15    8    9 2
    16    8   10 1
    17   10   15 ar
    18   10   11 ar
    19   11   12 ar
    20   11   31 1
    21   12   13 ar
    22   12   32 1
    23   13   14 ar
    24   13   16 1
    25   14   15 ar
    26   14   33 1
    27   15   34 1
    28   16   17 2
    29   16   18 2
    30   16   19 1
    31   19   20 1
    32   19   35 1
    33   20   24 1
    34   20   21 1
    35   20   36 1
    36   21   22 1
    37   21   37 1
    38   21   38 1
    39   22   23 1
    40   22   39 1
    41   22   40 1
    42   23   24 1
    43   23   41 1
    44   23   42 1
    45   24   43 1
    46   24   44 1
@<TRIPOS>MOLECULE
ZINC01331337
   42    44     0     0     0
SMALL
USER_CHARGES

@<TRIPOS>ATOM
      1 C1         -9.7018   -2.1267    1.4708 C.3       1 <0>        -0.2072
      2 C2         -9.3691   -1.9469   -0.0117 C.3       1 <0>        -0.1042
      3 C3         -8.6328   -0.6467   -0.2072 C.2       1 <0>        -0.1582
      4 C4         -9.3107    0.5036   -0.4591 C.2       1 <0>         0.0526
      5 N1         -8.6579    1.6579   -0.6332 N.2       1 <0>        -0.2598
      6 C5         -7.3478    1.7332   -0.5697 C.2       1 <0>         0.2695
      7 N2         -6.5964    0.6215   -0.3150 N.pl3     1 <0>        -0.1291
      8 C6         -7.2234   -0.5977   -0.1331 C.2       1 <0>         0.0242
      9 N3         -6.2780   -1.4856    0.0867 N.2       1 <0>        -0.0972
     10 N4         -5.1256   -0.9133    0.0496 N.2       1 <0>        -0.0651
     11 C7         -5.2601    0.3702   -0.1950 C.2       1 <0>        -0.2631
     12 S1         -3.9584    1.5495   -0.3346 S.3       1 <0>         0.2841
     13 C8         -2.4524    0.5746   -0.0658 C.3       1 <0>        -0.2961
     14 C9         -1.2477    1.4751   -0.1598 C.2       1 <0>         0.3176
     15 O1         -1.3909    2.6580   -0.3860 O.2       1 <0>        -0.3423
     16 N5         -0.0111    0.9658    0.0074 N.am      1 <0>        -0.3188
     17 C10         1.0994    1.8170    0.0263 C.ar      1 <0>         0.0587
     18 C11         2.3180    1.3823   -0.4783 C.ar      1 <0>        -0.1576
     19 C12         3.4105    2.2271   -0.4638 C.ar      1 <0>        -0.1102
     20 C13         3.2950    3.5002    0.0633 C.ar      1 <0>        -0.1410
     21 C14         2.0846    3.9339    0.5722 C.ar      1 <0>        -0.1101
     22 C15         0.9866    3.0962    0.5550 C.ar      1 <0>        -0.1256
     23 N6         -6.7271    2.9446   -0.7557 N.pl3     1 <0>        -0.3758
     24 C16       -10.8151    0.4785   -0.5437 C.3       1 <0>        -0.1628
     25 H1         -8.7792   -2.1407    2.0511 H         1 <0>         0.0869
     26 H2        -10.3289   -1.3002    1.8052 H         1 <0>         0.0697
     27 H3        -10.2343   -3.0672    1.6122 H         1 <0>         0.0746
     28 H4        -10.2916   -1.9329   -0.5920 H         1 <0>         0.0869
     29 H5         -8.7420   -2.7734   -0.3462 H         1 <0>         0.1052
     30 H6         -2.3837   -0.2047   -0.8248 H         1 <0>         0.1386
     31 H7         -2.4876    0.1168    0.9228 H         1 <0>         0.1395
     32 H8          0.1095    0.0089    0.1105 H         1 <0>         0.2363
     33 H9          2.4100    0.3864   -0.8857 H         1 <0>         0.1299
     34 H10         4.3573    1.8913   -0.8604 H         1 <0>         0.1324
     35 H11         4.1521    4.1572    0.0779 H         1 <0>         0.1309
     36 H12         1.9975    4.9288    0.9831 H         1 <0>         0.1349
     37 H13         0.0415    3.4355    0.9525 H         1 <0>         0.1581
     38 H14        -7.2559    3.7383   -0.9328 H         1 <0>         0.2570
     39 H15        -5.7602    3.0063   -0.7100 H         1 <0>         0.2450
     40 H16       -11.2377    0.6580    0.4448 H         1 <0>         0.0977
     41 H17       -11.1534    1.2548   -1.2300 H         1 <0>         0.0993
     42 H18       -11.1423   -0.4956   -0.9073 H         1 <0>         0.0948
@<TRIPOS>BOND
     1    1    2 1
     2    1   25 1
     3    1   26 1
     4    1   27 1
     5    2    3 1
     6    2   28 1
     7    2   29 1
     8    3    8 1
     9    3    4 2
    10    4    5 1
    11    4   24 1
    12    5    6 2
    13    6    7 1
    14    6   23 1
    15    7   11 1
    16    7    8 1
    17    8    9 2
    18    9   10 1
    19   10   11 2
    20   11   12 1
    21   12   13 1
    22   13   14 1
    23   13   30 1
    24   13   31 1
    25   14   15 2
    26   14   16 am
    27   16   17 1
    28   16   32 1
    29   17   22 ar
    30   17   18 ar
    31   18   19 ar
    32   18   33 1
    33   19   20 ar
    34   19   34 1
    35   20   21 ar
    36   20   35 1
    37   21   22 ar
    38   21   36 1
    39   22   37 1
    40   23   38 1
    41   23   39 1
    42   24   40 1
    43   24   41 1
    44   24   42 1
@<TRIPOS>MOLECULE
ZINC01331362
   40    42     0     0     0
SMALL
USER_CHARGES

@<TRIPOS>ATOM
      1 C1          5.9771   14.1838    0.9634 C.3       1 <0>        -0.1616
      2 C2          5.1007   12.9646    0.8339 C.2       1 <0>         0.0560
      3 C3          3.7501   13.1088    0.8003 C.2       1 <0>        -0.2177
      4 C4          2.9500   11.9514    0.6790 C.2       1 <0>         0.0208
      5 N1          1.6557   11.7249    0.6170 N.2       1 <0>        -0.0961
      6 N2          1.4397   10.4612    0.5008 N.2       1 <0>        -0.0635
      7 C5          2.5758    9.8021    0.4910 C.2       1 <0>        -0.2626
      8 N3          3.5784   10.7220    0.5997 N.pl3     1 <0>        -0.1321
      9 C6          4.9420   10.6593    0.6404 C.2       1 <0>         0.2756
     10 N4          5.6612   11.7529    0.7539 N.2       1 <0>        -0.2655
     11 N5          5.5687    9.4392    0.5619 N.pl3     1 <0>        -0.3744
     12 S1          2.7698    8.0561    0.3550 S.3       1 <0>         0.2837
     13 C7          1.0697    7.4327    0.2470 C.3       1 <0>        -0.2957
     14 C8          1.0922    5.9308    0.1252 C.2       1 <0>         0.3186
     15 O1          2.1509    5.3392    0.1125 O.2       1 <0>        -0.3399
     16 N6         -0.0642    5.2451    0.0304 N.am      1 <0>        -0.3177
     17 C9         -0.0497    3.8459    0.0285 C.ar      1 <0>         0.0943
     18 C10         0.9059    3.1593    0.7671 C.ar      1 <0>        -0.1644
     19 C11         0.9201    1.7781    0.7652 C.ar      1 <0>        -0.0725
     20 C12        -0.0157    1.0757    0.0296 C.ar      1 <0>        -0.2335
     21 C13        -0.9692    1.7563   -0.7141 C.ar      1 <0>         0.1138
     22 C14        -0.9900    3.1425   -0.7106 C.ar      1 <0>        -0.1915
     23 O2         -1.8851    1.0644   -1.4417 O.3       1 <0>        -0.2122
     24 C15        -1.8076   -0.3617   -1.3948 C.3       1 <0>        -0.0619
     25 H1          6.1539   14.3938    2.0182 H         1 <0>         0.0980
     26 H2          6.9290   14.0016    0.4646 H         1 <0>         0.1015
     27 H3          5.4822   15.0378    0.5009 H         1 <0>         0.0908
     28 H4          3.2980   14.0875    0.8654 H         1 <0>         0.1678
     29 H5          5.0428    8.6284    0.4781 H         1 <0>         0.2456
     30 H6          6.5369    9.3886    0.5903 H         1 <0>         0.2575
     31 H7          0.5806    7.8609   -0.6279 H         1 <0>         0.1394
     32 H8          0.5210    7.7162    1.1452 H         1 <0>         0.1399
     33 H9         -0.9065    5.7214   -0.0366 H         1 <0>         0.2379
     34 H10         1.6382    3.7057    1.3427 H         1 <0>         0.1585
     35 H11         1.6642    1.2460    1.3394 H         1 <0>         0.1356
     36 H12        -0.0021   -0.0042    0.0301 H         1 <0>         0.1357
     37 H13        -1.7340    3.6738   -1.2856 H         1 <0>         0.1441
     38 H14        -1.9355   -0.6989   -0.3662 H         1 <0>         0.0686
     39 H15        -2.5935   -0.7889   -2.0176 H         1 <0>         0.1087
     40 H16        -0.8347   -0.6851   -1.7649 H         1 <0>         0.0700
@<TRIPOS>BOND
     1    1    2 1
     2    1   25 1
     3    1   26 1
     4    1   27 1
     5    2   10 1
     6    2    3 2
     7    3    4 1
     8    3   28 1
     9    4    8 1
    10    4    5 2
    11    5    6 1
    12    6    7 2
    13    7    8 1
    14    7   12 1
    15    8    9 1
    16    9   10 2
    17    9   11 1
    18   11   29 1
    19   11   30 1
    20   12   13 1
    21   13   14 1
    22   13   31 1
    23   13   32 1
    24   14   15 2
    25   14   16 am
    26   16   17 1
    27   16   33 1
    28   17   22 ar
    29   17   18 ar
    30   18   19 ar
    31   18   34 1
    32   19   20 ar
    33   19   35 1
    34   20   21 ar
    35   20   36 1
    36   21   22 ar
    37   21   23 1
    38   22   37 1
    39   23   24 1
    40   24   38 1
    41   24   39 1
    42   24   40 1
@<TRIPOS>MOLECULE
ZINC01366443
   45    47     0     0     0
SMALL
USER_CHARGES

@<TRIPOS>ATOM
      1 C1         -5.8072    0.5582    4.7024 C.3       1 <0>        -0.1788
      2 C2         -4.8606   -0.5116    5.1827 C.ar      1 <0>        -0.0212
      3 C3         -4.7600   -0.7903    6.5165 C.ar      1 <0>        -0.1645
      4 C4         -3.8919   -1.7742    6.9689 C.ar      1 <0>        -0.0749
      5 C5         -3.1147   -2.4885    6.0824 C.ar      1 <0>        -0.1362
      6 C6         -3.1997   -2.2221    4.7201 C.ar      1 <0>         0.1069
      7 C7         -4.0818   -1.2235    4.2650 C.ar      1 <0>        -0.1206
      8 C8         -4.1648   -0.9510    2.8289 C.2       1 <0>        -0.0468
      9 C9         -3.3858   -1.6735    1.9864 C.2       1 <0>        -0.1906
     10 C10        -2.5220   -2.6678    2.4936 C.2       1 <0>         0.3259
     11 O1         -1.8341   -3.3091    1.7183 O.2       1 <0>        -0.3289
     12 N1         -2.4345   -2.9213    3.8112 N.am      1 <0>        -0.2844
     13 H1         -1.8053   -3.6272    4.1365 H         1 <0>         0.2551
     14 C11        -3.4470   -1.4181    0.5025 C.3       1 <0>         0.0536
     15 N2         -2.3846   -0.4832    0.1236 N.am      1 <0>        -0.3369
     16 C12        -2.6400    0.9593    0.1345 C.3       1 <0>        -0.0206
     17 C13        -2.9889    1.4261   -1.2802 C.3       1 <0>        -0.0293
     18 O2         -4.2202    0.8273   -1.6893 O.3       1 <0>        -0.3550
     19 C14        -1.1723   -0.9503   -0.2349 C.2       1 <0>         0.3782
     20 O3         -0.9775   -2.1498   -0.3011 O.2       1 <0>        -0.3092
     21 C15        -0.0884   -0.0135   -0.5452 C.2       1 <0>        -0.3289
     22 C16         1.2483   -0.2774   -0.7999 C.2       1 <0>        -0.0949
     23 C17         2.0582    0.7984   -1.0660 C.2       1 <0>        -0.1909
     24 C18         1.5230    2.0475   -1.0675 C.2       1 <0>        -0.3400
     25 S1         -0.1459    1.7634   -0.6940 S.3       1 <0>         0.3650
     26 C19        -2.1767   -3.5545    6.5876 C.3       1 <0>        -0.1715
     27 H2         -6.7818    0.1154    4.4968 H         1 <0>         0.0921
     28 H3         -5.9109    1.3236    5.4715 H         1 <0>         0.0863
     29 H4         -5.4137    1.0093    3.7915 H         1 <0>         0.0826
     30 H5         -5.3616   -0.2403    7.2250 H         1 <0>         0.1338
     31 H6         -3.8250   -1.9826    8.0265 H         1 <0>         0.1343
     32 H7         -4.8316   -0.1911    2.4489 H         1 <0>         0.1418
     33 H8         -4.4162   -0.9895    0.2472 H         1 <0>         0.1040
     34 H9         -3.3126   -2.3575   -0.0337 H         1 <0>         0.1405
     35 H10        -3.4723    1.1759    0.8042 H         1 <0>         0.1045
     36 H11        -1.7492    1.4834    0.4807 H         1 <0>         0.1093
     37 H12        -3.0918    2.5112   -1.2897 H         1 <0>         0.0650
     38 H13        -2.1954    1.1304   -1.9665 H         1 <0>         0.0800
     39 H14        -4.5037    1.0792   -2.5788 H         1 <0>         0.2135
     40 H15         1.6356   -1.2855   -0.7897 H         1 <0>         0.1680
     41 H16         3.1085    0.6539   -1.2718 H         1 <0>         0.1446
     42 H17         2.0175    2.9889   -1.2560 H         1 <0>         0.1844
     43 H18        -2.6974   -4.5116    6.6187 H         1 <0>         0.0891
     44 H19        -1.3184   -3.6293    5.9199 H         1 <0>         0.0773
     45 H20        -1.8360   -3.2935    7.5895 H         1 <0>         0.0883
@<TRIPOS>BOND
     1    1    2 1
     2    1   27 1
     3    1   28 1
     4    1   29 1
     5    2    7 ar
     6    2    3 ar
     7    3    4 ar
     8    3   30 1
     9    4    5 ar
    10    4   31 1
    11    5    6 ar
    12    5   26 1
    13    6   12 1
    14    6    7 ar
    15    7    8 1
    16    8    9 2
    17    8   32 1
    18    9   10 1
    19    9   14 1
    20   10   11 2
    21   10   12 am
    22   12   13 1
    23   14   15 1
    24   14   33 1
    25   14   34 1
    26   15   16 1
    27   15   19 am
    28   16   17 1
    29   16   35 1
    30   16   36 1
    31   17   18 1
    32   17   37 1
    33   17   38 1
    34   18   39 1
    35   19   20 2
    36   19   21 1
    37   21   25 1
    38   21   22 2
    39   22   23 1
    40   22   40 1
    41   23   24 2
    42   23   41 1
    43   24   25 1
    44   24   42 1
    45   26   43 1
    46   26   44 1
    47   26   45 1
@<TRIPOS>MOLECULE
ZINC01395945
   43    45     0     0     0
SMALL
USER_CHARGES

@<TRIPOS>ATOM
      1 C1          2.4239    4.5529    2.3328 C.3       1 <0>        -0.0425
      2 N1          1.1515    4.3223    1.6444 N.pl3     1 <0>        -0.8444
      3 C2         -0.1131    4.5117    2.3594 C.3       1 <0>        -0.0528
      4 S1          1.1425    3.8475    0.0580 S.o2      1 <0>         2.7691
      5 O1          2.3752    4.2788   -0.5021 O.2       1 <0>        -0.9215
      6 O2         -0.1151    4.2384   -0.4758 O.2       1 <0>        -0.9216
      7 C3          1.1709    2.0857    0.0413 C.ar      1 <0>        -0.8196
      8 C4         -0.0163    1.3765    0.0474 C.ar      1 <0>         0.0171
      9 C5          0.0024   -0.0043    0.0339 C.ar      1 <0>        -0.2245
     10 C6          1.2155   -0.6808    0.0143 C.ar      1 <0>         0.1694
     11 C7          2.4062    0.0347    0.0081 C.ar      1 <0>        -0.2397
     12 C8          2.3803    1.4155    0.0216 C.ar      1 <0>         0.0173
     13 N2          1.2380   -2.0773    0.0010 N.pl3     1 <0>        -0.3598
     14 C9          2.5184   -2.7890   -0.0197 C.3       1 <0>         0.0552
     15 C10         2.2669   -4.2749   -0.0307 C.ar      1 <0>        -0.0961
     16 C11         3.3940   -5.2072   -0.0579 C.ar      1 <0>        -0.0289
     17 C12         4.7178   -4.7631   -0.0630 C.ar      1 <0>        -0.1077
     18 C13         5.7369   -5.6743   -0.0646 C.ar      1 <0>        -0.1033
     19 C14         5.4748   -7.0381   -0.0913 C.ar      1 <0>        -0.1082
     20 C15         4.1787   -7.5051   -0.0938 C.ar      1 <0>        -0.1185
     21 C16         3.1231   -6.5945   -0.0795 C.ar      1 <0>        -0.1571
     22 C17         1.7206   -7.0284   -0.0861 C.ar      1 <0>         0.1447
     23 O3          1.4377   -8.2130   -0.1050 O.3       1 <0>        -0.1619
     24 N3          0.7510   -6.0901   -0.0709 N.ar      1 <0>        -0.1419
     25 H1          2.2773   -8.7561   -0.1139 H         1 <0>         0.2622
     26 N4          1.0486   -4.7275   -0.0380 N.ar      1 <0>        -0.0338
     27 H2          2.7205    5.5944    2.2090 H         1 <0>         0.0779
     28 H3          2.3084    4.3316    3.3938 H         1 <0>         0.0775
     29 H4          3.1898    3.9042    1.9078 H         1 <0>         0.0831
     30 H5         -0.9453    4.2952    1.6896 H         1 <0>         0.1039
     31 H6         -0.1509    3.8380    3.2155 H         1 <0>         0.0674
     32 H7         -0.1839    5.5430    2.7054 H         1 <0>         0.0782
     33 H8         -0.9591    1.9031    0.0581 H         1 <0>         0.1468
     34 H9         -0.9251   -0.5576    0.0391 H         1 <0>         0.1398
     35 H10         3.3511   -0.4882   -0.0068 H         1 <0>         0.1293
     36 H11         3.3056    1.9723    0.0172 H         1 <0>         0.1441
     37 H12         0.4060   -2.5758    0.0056 H         1 <0>         0.2602
     38 H13         3.0757   -2.5083   -0.9134 H         1 <0>         0.0958
     39 H14         3.0954   -2.5247    0.8664 H         1 <0>         0.0931
     40 H15         4.9353   -3.7053   -0.0564 H         1 <0>         0.1436
     41 H16         6.7601   -5.3286   -0.0592 H         1 <0>         0.1410
     42 H17         6.2957   -7.7397   -0.1064 H         1 <0>         0.1405
     43 H18         3.9822   -8.5670   -0.1105 H         1 <0>         0.1265
@<TRIPOS>BOND
     1    1    2 1
     2    1   27 1
     3    1   28 1
     4    1   29 1
     5    2    3 1
     6    2    4 1
     7    3   30 1
     8    3   31 1
     9    3   32 1
    10    4    5 2
    11    4    6 2
    12    4    7 1
    13    7   12 ar
    14    7    8 ar
    15    8    9 ar
    16    8   33 1
    17    9   10 ar
    18    9   34 1
    19   10   11 ar
    20   10   13 1
    21   11   12 ar
    22   11   35 1
    23   12   36 1
    24   13   14 1
    25   13   37 1
    26   14   15 1
    27   14   38 1
    28   14   39 1
    29   15   16 ar
    30   15   26 ar
    31   16   17 ar
    32   16   21 ar
    33   17   18 ar
    34   17   40 1
    35   18   19 ar
    36   18   41 1
    37   19   20 ar
    38   19   42 1
    39   20   21 ar
    40   20   43 1
    41   21   22 ar
    42   22   24 ar
    43   22   23 1
    44   23   25 1
    45   24   26 ar
@<TRIPOS>MOLECULE
ZINC01395945
   43    45     0     0     0
SMALL
USER_CHARGES

@<TRIPOS>ATOM
      1 C1          2.4239    4.5529    2.3328 C.3       1 <0>        -0.0425
      2 N1          1.1515    4.3223    1.6444 N.pl3     1 <0>        -0.8444
      3 C2         -0.1131    4.5117    2.3594 C.3       1 <0>        -0.0528
      4 S1          1.1425    3.8475    0.0580 S.o2      1 <0>         2.7691
      5 O1          2.3752    4.2788   -0.5021 O.2       1 <0>        -0.9215
      6 O2         -0.1151    4.2384   -0.4758 O.2       1 <0>        -0.9216
      7 C3          1.1709    2.0857    0.0413 C.ar      1 <0>        -0.8196
      8 C4         -0.0163    1.3765    0.0474 C.ar      1 <0>         0.0171
      9 C5          0.0024   -0.0043    0.0339 C.ar      1 <0>        -0.2245
     10 C6          1.2155   -0.6808    0.0143 C.ar      1 <0>         0.1694
     11 C7          2.4062    0.0347    0.0081 C.ar      1 <0>        -0.2397
     12 C8          2.3803    1.4155    0.0216 C.ar      1 <0>         0.0173
     13 N2          1.2380   -2.0773    0.0010 N.pl3     1 <0>        -0.3598
     14 C9          2.5184   -2.7890   -0.0197 C.3       1 <0>         0.0552
     15 C10         2.2669   -4.2749   -0.0307 C.ar      1 <0>        -0.0961
     16 C11         3.3940   -5.2072   -0.0579 C.ar      1 <0>        -0.0289
     17 C12         4.7178   -4.7631   -0.0630 C.ar      1 <0>        -0.1077
     18 C13         5.7369   -5.6743   -0.0646 C.ar      1 <0>        -0.1033
     19 C14         5.4748   -7.0381   -0.0913 C.ar      1 <0>        -0.1082
     20 C15         4.1787   -7.5051   -0.0938 C.ar      1 <0>        -0.1185
     21 C16         3.1231   -6.5945   -0.0795 C.ar      1 <0>        -0.1571
     22 C17         1.7206   -7.0284   -0.0861 C.ar      1 <0>         0.1447
     23 O3          1.4377   -8.2130   -0.1050 O.3       1 <0>        -0.1619
     24 N3          0.7510   -6.0901   -0.0709 N.ar      1 <0>        -0.1419
     25 H1          2.2773   -8.7561   -0.1139 H         1 <0>         0.2622
     26 N4          1.0486   -4.7275   -0.0380 N.ar      1 <0>        -0.0338
     27 H2          2.7205    5.5944    2.2090 H         1 <0>         0.0779
     28 H3          2.3084    4.3316    3.3938 H         1 <0>         0.0775
     29 H4          3.1898    3.9042    1.9078 H         1 <0>         0.0831
     30 H5         -0.9453    4.2952    1.6896 H         1 <0>         0.1039
     31 H6         -0.1509    3.8380    3.2155 H         1 <0>         0.0674
     32 H7         -0.1839    5.5430    2.7054 H         1 <0>         0.0782
     33 H8         -0.9591    1.9031    0.0581 H         1 <0>         0.1468
     34 H9         -0.9251   -0.5576    0.0391 H         1 <0>         0.1398
     35 H10         3.3511   -0.4882   -0.0068 H         1 <0>         0.1293
     36 H11         3.3056    1.9723    0.0172 H         1 <0>         0.1441
     37 H12         0.4060   -2.5758    0.0056 H         1 <0>         0.2602
     38 H13         3.0757   -2.5083   -0.9134 H         1 <0>         0.0958
     39 H14         3.0954   -2.5247    0.8664 H         1 <0>         0.0931
     40 H15         4.9353   -3.7053   -0.0564 H         1 <0>         0.1436
     41 H16         6.7601   -5.3286   -0.0592 H         1 <0>         0.1410
     42 H17         6.2957   -7.7397   -0.1064 H         1 <0>         0.1405
     43 H18         3.9822   -8.5670   -0.1105 H         1 <0>         0.1265
@<TRIPOS>BOND
     1    1    2 1
     2    1   27 1
     3    1   28 1
     4    1   29 1
     5    2    3 1
     6    2    4 1
     7    3   30 1
     8    3   31 1
     9    3   32 1
    10    4    5 2
    11    4    6 2
    12    4    7 1
    13    7   12 ar
    14    7    8 ar
    15    8    9 ar
    16    8   33 1
    17    9   10 ar
    18    9   34 1
    19   10   11 ar
    20   10   13 1
    21   11   12 ar
    22   11   35 1
    23   12   36 1
    24   13   14 1
    25   13   37 1
    26   14   15 1
    27   14   38 1
    28   14   39 1
    29   15   16 ar
    30   15   26 ar
    31   16   17 ar
    32   16   21 ar
    33   17   18 ar
    34   17   40 1
    35   18   19 ar
    36   18   41 1
    37   19   20 ar
    38   19   42 1
    39   20   21 ar
    40   20   43 1
    41   21   22 ar
    42   22   24 ar
    43   22   23 1
    44   23   25 1
    45   24   26 ar
@<TRIPOS>MOLECULE
ZINC01397428
   41    43     0     0     0
SMALL
USER_CHARGES

@<TRIPOS>ATOM
      1 C1          3.6664    2.7419   -1.5059 C.3       1 <0>        -0.1426
      2 C2          3.5157    1.4947   -0.6736 C.2       1 <0>        -0.0373
      3 N1          4.4444    0.6015   -0.4442 N.2       1 <0>        -0.1864
      4 C3          3.8998   -0.3505    0.3355 C.2       1 <0>        -0.1093
      5 N2          2.6494   -0.0155    0.5712 N.2       1 <0>        -0.0538
      6 N3          2.4002    1.0981   -0.0273 N.pl3     1 <0>        -0.0533
      7 C4          1.1754    1.7791   -0.0139 C.ar      1 <0>         0.0972
      8 C5         -0.0164    1.0668    0.0017 C.ar      1 <0>        -0.1148
      9 C6         -1.2219    1.7408    0.0092 C.ar      1 <0>        -0.0572
     10 C7         -1.2427    3.1234    0.0116 C.ar      1 <0>        -0.1091
     11 C8         -0.0574    3.8356   -0.0039 C.ar      1 <0>        -0.0570
     12 C9          1.1512    3.1674   -0.0167 C.ar      1 <0>        -0.1483
     13 N4         -2.5363    3.8427    0.0253 N.pl3     1 <0>         0.5475
     14 O1         -2.5561    5.0605    0.0228 O.2       1 <0>        -0.3492
     15 O2         -3.5811    3.2167    0.0390 O.3       1 <0>        -0.3453
     16 C10         4.5851   -1.5599    0.8378 C.2       1 <0>         0.3983
     17 O3          3.9848   -2.3522    1.5379 O.2       1 <0>        -0.3295
     18 N5          5.8754   -1.7843    0.5199 N.am      1 <0>        -0.3056
     19 C11         6.5529   -2.8778    1.0733 C.ar      1 <0>         0.0191
     20 C12         7.9028   -2.7745    1.3826 C.ar      1 <0>        -0.1166
     21 C13         8.5690   -3.8516    1.9328 C.ar      1 <0>        -0.2068
     22 C14         7.8928   -5.0402    2.1663 C.ar      1 <0>         0.0845
     23 C15         6.5455   -5.1456    1.8532 C.ar      1 <0>        -0.1432
     24 C16         5.8766   -4.0677    1.3079 C.ar      1 <0>        -0.0901
     25 O4          8.5509   -6.1022    2.7029 O.3       1 <0>        -0.2113
     26 C17         9.9370   -5.9234    3.0008 C.3       1 <0>        -0.0628
     27 H1          4.0010    3.5633   -0.8723 H         1 <0>         0.1024
     28 H2          4.4006    2.5674   -2.2924 H         1 <0>         0.1201
     29 H3          2.7066    2.9972   -1.9550 H         1 <0>         0.0950
     30 H4         -0.0008   -0.0131    0.0036 H         1 <0>         0.1775
     31 H5         -2.1493    1.1873    0.0168 H         1 <0>         0.1773
     32 H6         -0.0769    4.9154   -0.0057 H         1 <0>         0.1746
     33 H7          2.0766    3.7241   -0.0292 H         1 <0>         0.1597
     34 H8          6.3348   -1.1885   -0.0923 H         1 <0>         0.2475
     35 H9          8.4304   -1.8508    1.1963 H         1 <0>         0.1319
     36 H10         9.6178   -3.7702    2.1771 H         1 <0>         0.1368
     37 H11         6.0197   -6.0712    2.0357 H         1 <0>         0.1487
     38 H12         4.8277   -4.1500    1.0641 H         1 <0>         0.1692
     39 H13        10.3397   -6.8443    3.4225 H         1 <0>         0.1080
     40 H14        10.4762   -5.6763    2.0864 H         1 <0>         0.0665
     41 H15        10.0523   -5.1132    3.7208 H         1 <0>         0.0680
@<TRIPOS>BOND
     1    1    2 1
     2    1   27 1
     3    1   28 1
     4    1   29 1
     5    2    6 1
     6    2    3 2
     7    3    4 1
     8    4    5 2
     9    4   16 1
    10    5    6 1
    11    6    7 1
    12    7   12 ar
    13    7    8 ar
    14    8    9 ar
    15    8   30 1
    16    9   10 ar
    17    9   31 1
    18   10   11 ar
    19   10   13 1
    20   11   12 ar
    21   11   32 1
    22   12   33 1
    23   13   14 2
    24   13   15 1
    25   16   17 2
    26   16   18 am
    27   18   19 1
    28   18   34 1
    29   19   24 ar
    30   19   20 ar
    31   20   21 ar
    32   20   35 1
    33   21   22 ar
    34   21   36 1
    35   22   23 ar
    36   22   25 1
    37   23   24 ar
    38   23   37 1
    39   24   38 1
    40   25   26 1
    41   26   39 1
    42   26   40 1
    43   26   41 1
@<TRIPOS>MOLECULE
ZINC01398087
   41    42     0     0     0
SMALL
USER_CHARGES

@<TRIPOS>ATOM
      1 C1         -2.5507   -0.0004   -1.9480 C.3       1 <0>        -0.2415
      2 C2         -2.5448    1.4852   -1.6948 C.2       1 <0>         0.3006
      3 O1         -3.5929    2.0853   -1.5822 O.2       1 <0>        -0.3570
      4 N1         -1.3751    2.1460   -1.5879 N.am      1 <0>        -0.3266
      5 C3         -1.3681    3.5401   -1.4517 C.ar      1 <0>         0.0538
      6 C4         -2.3823    4.2985   -2.0216 C.ar      1 <0>        -0.1150
      7 C5         -2.3781    5.6719   -1.8834 C.ar      1 <0>        -0.1387
      8 C6         -1.3540    6.2962   -1.1830 C.ar      1 <0>         0.0313
      9 C7         -0.3369    5.5381   -0.6176 C.ar      1 <0>        -0.1041
     10 C8         -0.3438    4.1643   -0.7518 C.ar      1 <0>        -0.1474
     11 N2         -1.3473    7.6895   -1.0465 N.am      1 <0>        -0.3143
     12 C9         -0.1790    8.3614   -1.0510 C.2       1 <0>         0.3487
     13 O2          0.8725    7.7520   -1.0807 O.2       1 <0>        -0.3719
     14 C10        -0.1762    9.8392   -1.0198 C.ar      1 <0>        -0.1308
     15 C11        -1.3781   10.5404   -0.9066 C.ar      1 <0>        -0.0984
     16 C12        -1.3680   11.9192   -0.8728 C.ar      1 <0>        -0.1320
     17 C13        -0.1709   12.6078   -0.9613 C.ar      1 <0>        -0.0976
     18 C14         1.0231   11.9193   -1.0794 C.ar      1 <0>        -0.1293
     19 C15         1.0276   10.5399   -1.1091 C.ar      1 <0>        -0.0233
     20 C16         2.3292    9.7915   -1.2383 C.3       1 <0>        -0.1420
     21 C17         2.5095    9.3277   -2.6851 C.3       1 <0>        -0.1221
     22 N3          3.7748    8.6002   -2.8107 N.pl3     1 <0>         0.5105
     23 O3          3.8153    7.5507   -3.4275 O.2       1 <0>        -0.3535
     24 O4          4.7864    9.0447   -2.2982 O.3       1 <0>        -0.3728
     25 H1         -3.5797   -0.3563   -1.9985 H         1 <0>         0.1188
     26 H2         -2.0469   -0.2101   -2.8915 H         1 <0>         0.0973
     27 H3         -2.0297   -0.5092   -1.1369 H         1 <0>         0.0960
     28 H4         -0.5380    1.6562   -1.6053 H         1 <0>         0.2337
     29 H5         -3.1765    3.8133   -2.5697 H         1 <0>         0.1672
     30 H6         -3.1692    6.2613   -2.3230 H         1 <0>         0.1325
     31 H7          0.4593    6.0234   -0.0727 H         1 <0>         0.1660
     32 H8          0.4471    3.5747   -0.3122 H         1 <0>         0.1355
     33 H9         -2.1835    8.1713   -0.9487 H         1 <0>         0.2348
     34 H10        -2.3134   10.0042   -0.8419 H         1 <0>         0.1295
     35 H11        -2.2968   12.4628   -0.7815 H         1 <0>         0.1385
     36 H12        -0.1689   13.6876   -0.9385 H         1 <0>         0.1385
     37 H13         1.9539   12.4627   -1.1487 H         1 <0>         0.1432
     38 H14         3.1545   10.4475   -0.9615 H         1 <0>         0.1108
     39 H15         2.3170    8.9245   -0.5777 H         1 <0>         0.1526
     40 H16         1.6841    8.6717   -2.9619 H         1 <0>         0.1515
     41 H17         2.5217   10.1946   -3.3457 H         1 <0>         0.1270
@<TRIPOS>BOND
     1    1    2 1
     2    1   25 1
     3    1   26 1
     4    1   27 1
     5    2    3 2
     6    2    4 am
     7    4    5 1
     8    4   28 1
     9    5   10 ar
    10    5    6 ar
    11    6    7 ar
    12    6   29 1
    13    7    8 ar
    14    7   30 1
    15    8    9 ar
    16    8   11 1
    17    9   10 ar
    18    9   31 1
    19   10   32 1
    20   11   12 am
    21   11   33 1
    22   12   13 2
    23   12   14 1
    24   14   19 ar
    25   14   15 ar
    26   15   16 ar
    27   15   34 1
    28   16   17 ar
    29   16   35 1
    30   17   18 ar
    31   17   36 1
    32   18   19 ar
    33   18   37 1
    34   19   20 1
    35   20   21 1
    36   20   38 1
    37   20   39 1
    38   21   22 1
    39   21   40 1
    40   21   41 1
    41   22   23 2
    42   22   24 1
@<TRIPOS>MOLECULE
ZINC01398659
   41    43     0     0     0
SMALL
USER_CHARGES

@<TRIPOS>ATOM
      1 C1          2.9908   -4.0166    7.7314 C.3       1 <0>        -0.2138
      2 C2          3.3439   -2.5437    7.5151 C.3       1 <0>        -0.0104
      3 O1          2.2079   -1.8536    6.9903 O.3       1 <0>        -0.2612
      4 C3          2.3533   -0.5342    6.7410 C.2       1 <0>         0.3928
      5 O2          3.4178    0.0141    6.9640 O.2       1 <0>        -0.3521
      6 C4          1.2731    0.2084    6.2225 C.2       1 <0>        -0.2249
      7 C5          0.9507    0.4286    4.8029 C.ar      1 <0>        -0.0351
      8 C6          1.5448    0.0191    3.6088 C.ar      1 <0>        -0.0578
      9 C7          0.9951    0.3894    2.4135 C.ar      1 <0>        -0.2123
     10 C8         -0.1485    1.1819    2.3803 C.ar      1 <0>         0.0940
     11 C9         -0.7502    1.5966    3.5538 C.ar      1 <0>        -0.1469
     12 C10        -0.2057    1.2235    4.7794 C.ar      1 <0>         0.0020
     13 N1         -0.5863    1.4863    6.0861 N.pl3     1 <0>        -0.0329
     14 C11         0.2836    0.8892    6.9575 C.2       1 <0>         0.0699
     15 C12         0.0933    1.0212    8.3438 C.2       1 <0>        -0.1265
     16 C13        -0.9620    1.7471    8.8095 C.2       1 <0>        -0.0964
     17 C14        -1.8397    2.3496    7.8962 C.2       1 <0>        -0.1855
     18 C15        -1.6410    2.2123    6.5681 C.2       1 <0>        -0.0247
     19 O3         -0.6816    1.5467    1.1837 O.3       1 <0>        -0.1767
     20 C16        -0.0127    1.0858    0.0080 C.3       1 <0>        -0.0311
     21 C17        -0.7416    1.5850   -1.2129 C.2       1 <0>         0.2999
     22 O4         -1.7359    2.2682   -1.0884 O.2       1 <0>        -0.3143
     23 N2         -0.2884    1.2723   -2.4431 N.am      1 <0>        -0.3352
     24 N3         -0.9491    1.7248   -3.5497 N.3       1 <0>        -0.2078
     25 H1          3.8573   -4.5430    8.1317 H         1 <0>         0.0858
     26 H2          2.1625   -4.0920    8.4359 H         1 <0>         0.0850
     27 H3          2.7010   -4.4642    6.7807 H         1 <0>         0.0853
     28 H4          4.1722   -2.4683    6.8106 H         1 <0>         0.0842
     29 H5          3.6336   -2.0961    8.4658 H         1 <0>         0.0834
     30 H6          2.4345   -0.5929    3.6290 H         1 <0>         0.1417
     31 H7          1.4529    0.0683    1.4895 H         1 <0>         0.1319
     32 H8         -1.6400    2.2078    3.5198 H         1 <0>         0.1480
     33 H9          0.7780    0.5516    9.0345 H         1 <0>         0.1571
     34 H10        -1.1209    1.8576    9.8721 H         1 <0>         0.1430
     35 H11        -2.6783    2.9264    8.2573 H         1 <0>         0.1513
     36 H12        -2.3247    2.6817    5.8763 H         1 <0>         0.1658
     37 H13         0.0021   -0.0041    0.0020 H         1 <0>         0.0892
     38 H14         1.0099    1.4631    0.0003 H         1 <0>         0.0961
     39 H15         0.5068    0.7259   -2.5426 H         1 <0>         0.2195
     40 H16        -0.4953    1.4121   -4.3949 H         1 <0>         0.1571
     41 H17        -1.9176    1.4421   -3.5335 H         1 <0>         0.1628
@<TRIPOS>BOND
     1    1    2 1
     2    1   25 1
     3    1   26 1
     4    1   27 1
     5    2    3 1
     6    2   28 1
     7    2   29 1
     8    3    4 1
     9    4    5 2
    10    4    6 1
    11    6   14 2
    12    6    7 1
    13    7   12 ar
    14    7    8 ar
    15    8    9 ar
    16    8   30 1
    17    9   10 ar
    18    9   31 1
    19   10   11 ar
    20   10   19 1
    21   11   12 ar
    22   11   32 1
    23   12   13 1
    24   13   18 1
    25   13   14 1
    26   14   15 1
    27   15   16 2
    28   15   33 1
    29   16   17 1
    30   16   34 1
    31   17   18 2
    32   17   35 1
    33   18   36 1
    34   19   20 1
    35   20   21 1
    36   20   37 1
    37   20   38 1
    38   21   22 2
    39   21   23 am
    40   23   24 1
    41   23   39 1
    42   24   40 1
    43   24   41 1
@<TRIPOS>MOLECULE
ZINC01402749
   43    45     0     0     0
SMALL
USER_CHARGES

@<TRIPOS>ATOM
      1 C1         -6.8264    9.1769   -2.5487 C.3       1 <0>        -0.1687
      2 C2         -5.3236    9.2500   -2.6335 C.ar      1 <0>         0.0429
      3 C3         -4.7208   10.4152   -3.0670 C.ar      1 <0>        -0.1969
      4 C4         -3.3367   10.4758   -3.1432 C.ar      1 <0>        -0.0639
      5 C5         -2.6058    9.3575   -2.7791 C.ar      1 <0>        -0.2048
      6 C6         -3.2788    8.2199   -2.3525 C.ar      1 <0>         0.1360
      7 N1         -4.6008    8.1991   -2.2986 N.ar      1 <0>        -0.1865
      8 N2         -2.5526    7.0838   -1.9820 N.pl3     1 <0>        -0.0882
      9 C7         -3.0725    5.8710   -1.6425 C.2       1 <0>        -0.0527
     10 C8         -2.0164    5.0582   -1.3505 C.2       1 <0>        -0.1827
     11 N3         -0.8804    5.7811   -1.5249 N.2       1 <0>        -0.1550
     12 C9         -1.1967    6.9863   -1.9005 C.2       1 <0>        -0.0810
     13 C10        -2.0942    3.6492   -0.9286 C.2       1 <0>         0.4034
     14 O1         -3.1777    3.1093   -0.8079 O.2       1 <0>        -0.3284
     15 N4         -0.9650    2.9580   -0.6763 N.am      1 <0>        -0.3203
     16 N5         -1.0390    1.6177   -0.2749 N.2       1 <0>         0.0157
     17 C11         0.0347    0.9927    0.1011 C.2       1 <0>        -0.1196
     18 C12         1.1350    1.7367    0.7406 C.ar      1 <0>        -0.0660
     19 C13         0.9604    3.0764    1.0969 C.ar      1 <0>        -0.1624
     20 C14         1.9892    3.7690    1.6998 C.ar      1 <0>        -0.1136
     21 C15         3.2025    3.1420    1.9438 C.ar      1 <0>         0.0510
     22 C16         3.3857    1.8081    1.5860 C.ar      1 <0>         0.0723
     23 C17         2.3572    1.1056    0.9865 C.ar      1 <0>        -0.1927
     24 O2          4.5765    1.1970    1.8268 O.3       1 <0>        -0.1992
     25 C18         4.6942   -0.1720    1.4344 C.3       1 <0>        -0.0660
     26 O3          4.2153    3.8311    2.5332 O.3       1 <0>        -0.2759
     27 H1         -7.2268    8.8186   -3.4970 H         1 <0>         0.1002
     28 H2         -7.1124    8.4911   -1.7512 H         1 <0>         0.1067
     29 H3         -7.2270   10.1682   -2.3365 H         1 <0>         0.0890
     30 H4         -5.3205   11.2696   -3.3439 H         1 <0>         0.1471
     31 H5         -2.8408   11.3744   -3.4791 H         1 <0>         0.1470
     32 H6         -1.5269    9.3697   -2.8266 H         1 <0>         0.1440
     33 H7         -4.1188    5.6051   -1.6087 H         1 <0>         0.2148
     34 H8         -0.4969    7.7810   -2.1129 H         1 <0>         0.2071
     35 H9         -0.1011    3.3885   -0.7725 H         1 <0>         0.2424
     36 H10         0.1237   -0.0718   -0.0585 H         1 <0>         0.1813
     37 H11         0.0184    3.5682    0.9040 H         1 <0>         0.1592
     38 H12         1.8516    4.8032    1.9788 H         1 <0>         0.1495
     39 H13         2.4977    0.0713    0.7093 H         1 <0>         0.1413
     40 H14         3.9480   -0.7665    1.9614 H         1 <0>         0.0705
     41 H15         4.5335   -0.2570    0.3596 H         1 <0>         0.0659
     42 H16         5.6909   -0.5368    1.6827 H         1 <0>         0.1114
     43 H17         4.7987    4.2836    1.9087 H         1 <0>         0.2257
@<TRIPOS>BOND
     1    1    2 1
     2    1   27 1
     3    1   28 1
     4    1   29 1
     5    2    7 ar
     6    2    3 ar
     7    3    4 ar
     8    3   30 1
     9    4    5 ar
    10    4   31 1
    11    5    6 ar
    12    5   32 1
    13    6    7 ar
    14    6    8 1
    15    8   12 1
    16    8    9 1
    17    9   10 2
    18    9   33 1
    19   10   11 1
    20   10   13 1
    21   11   12 2
    22   12   34 1
    23   13   14 2
    24   13   15 am
    25   15   16 1
    26   15   35 1
    27   16   17 2
    28   17   18 1
    29   17   36 1
    30   18   23 ar
    31   18   19 ar
    32   19   20 ar
    33   19   37 1
    34   20   21 ar
    35   20   38 1
    36   21   22 ar
    37   21   26 1
    38   22   23 ar
    39   22   24 1
    40   23   39 1
    41   24   25 1
    42   25   40 1
    43   25   41 1
    44   25   42 1
    45   26   43 1
@<TRIPOS>MOLECULE
ZINC01402749
   44    46     0     0     0
SMALL
USER_CHARGES

@<TRIPOS>ATOM
      1 C1         -6.8264    9.1769   -2.5487 C.3       1 <0>        -0.1747
      2 C2         -5.3236    9.2500   -2.6335 C.ar      1 <0>         0.0570
      3 C3         -4.7208   10.4152   -3.0670 C.ar      1 <0>        -0.1473
      4 C4         -3.3367   10.4758   -3.1432 C.ar      1 <0>        -0.0538
      5 C5         -2.6058    9.3575   -2.7791 C.ar      1 <0>        -0.1804
      6 C6         -3.2788    8.2199   -2.3525 C.ar      1 <0>         0.0718
      7 N1         -4.6008    8.1991   -2.2986 N.ar      1 <0>        -0.1675
      8 N2         -2.5526    7.0838   -1.9820 N.pl3     1 <0>        -0.0093
      9 C7         -3.0725    5.8710   -1.6425 C.2       1 <0>         0.0132
     10 C8         -2.0164    5.0582   -1.3505 C.2       1 <0>        -0.1409
     11 C9         -1.1967    6.9863   -1.9005 C.cat     1 <0>         0.0146
     12 C10        -2.0942    3.6492   -0.9286 C.2       1 <0>         0.3725
     13 O1         -3.1777    3.1093   -0.8079 O.2       1 <0>        -0.2544
     14 N3         -0.9650    2.9580   -0.6763 N.am      1 <0>        -0.3231
     15 N4         -1.0390    1.6177   -0.2749 N.2       1 <0>         0.0116
     16 C11         0.0347    0.9927    0.1011 C.2       1 <0>        -0.0675
     17 C12         1.1350    1.7367    0.7406 C.ar      1 <0>        -0.0813
     18 C13         0.9604    3.0764    1.0969 C.ar      1 <0>        -0.1871
     19 C14         1.9892    3.7690    1.6998 C.ar      1 <0>        -0.1284
     20 C15         3.2025    3.1420    1.9438 C.ar      1 <0>         0.0721
     21 C16         3.3857    1.8081    1.5860 C.ar      1 <0>         0.0887
     22 C17         2.3572    1.1056    0.9865 C.ar      1 <0>        -0.1781
     23 O2          4.5765    1.1970    1.8268 O.3       1 <0>        -0.1867
     24 C18         4.6942   -0.1720    1.4344 C.3       1 <0>        -0.0702
     25 O3          4.2153    3.8311    2.5332 O.3       1 <0>        -0.2649
     26 H1         -7.2268    8.8186   -3.4970 H         1 <0>         0.1159
     27 H2         -7.1124    8.4911   -1.7512 H         1 <0>         0.1150
     28 H3         -7.2270   10.1682   -2.3365 H         1 <0>         0.1075
     29 H4         -5.3205   11.2696   -3.3439 H         1 <0>         0.1727
     30 H5         -2.8408   11.3744   -3.4791 H         1 <0>         0.1705
     31 H6         -1.5269    9.3697   -2.8266 H         1 <0>         0.1388
     32 H7         -4.1188    5.6051   -1.6087 H         1 <0>         0.2630
     33 H8         -0.4969    7.7810   -2.1129 H         1 <0>         0.2502
     34 H9         -0.1011    3.3885   -0.7725 H         1 <0>         0.2087
     35 H10         0.1237   -0.0718   -0.0585 H         1 <0>         0.2025
     36 H11         0.0184    3.5682    0.9040 H         1 <0>         0.1291
     37 H12         1.8516    4.8032    1.9788 H         1 <0>         0.1446
     38 H13         2.4977    0.0713    0.7093 H         1 <0>         0.1543
     39 H14         3.9480   -0.7665    1.9614 H         1 <0>         0.0770
     40 H15         4.5335   -0.2570    0.3596 H         1 <0>         0.0672
     41 H16         5.6909   -0.5368    1.6827 H         1 <0>         0.1278
     42 H17         4.7987    4.2836    1.9087 H         1 <0>         0.2337
     43 N5         -0.8827    5.7819   -1.5252 N.pl3     1 <0>        -0.0808
     44 H18         0.0727    5.4335   -1.3835 H         1 <0>         0.3163
@<TRIPOS>BOND
     1    1    2 1
     2    1   26 1
     3    1   27 1
     4    1   28 1
     5    2    7 ar
     6    2    3 ar
     7    3    4 ar
     8    3   29 1
     9    4    5 ar
    10    4   30 1
    11    5    6 ar
    12    5   31 1
    13    6    7 ar
    14    6    8 1
    15    8   11 1
    16    8    9 1
    17    9   10 2
    18    9   32 1
    19   10   12 1
    20   10   43 1
    21   11   33 1
    22   11   43 2
    23   12   13 2
    24   12   14 am
    25   14   15 1
    26   14   34 1
    27   15   16 2
    28   16   17 1
    29   16   35 1
    30   17   22 ar
    31   17   18 ar
    32   18   19 ar
    33   18   36 1
    34   19   20 ar
    35   19   37 1
    36   20   21 ar
    37   20   25 1
    38   21   22 ar
    39   21   23 1
    40   22   38 1
    41   23   24 1
    42   24   39 1
    43   24   40 1
    44   24   41 1
    45   25   42 1
    46   43   44 1
@<TRIPOS>MOLECULE
ZINC01406259
   40    42     0     0     0
SMALL
USER_CHARGES

@<TRIPOS>ATOM
      1 C1          1.2335   -2.0238   -5.1937 C.3       1 <0>        -0.2148
      2 C2          0.8740   -1.5301   -3.7908 C.3       1 <0>        -0.0057
      3 O1          1.9478   -0.6959   -3.2814 O.3       1 <0>        -0.2496
      4 C3          1.7878   -0.1794   -2.0529 C.2       1 <0>         0.3208
      5 O2          0.7837   -0.4164   -1.4240 O.2       1 <0>        -0.3631
      6 C4          2.8604    0.6962   -1.4580 C.3       1 <0>        -0.0686
      7 H1          3.6569    0.8416   -2.1877 H         1 <0>         0.1535
      8 C5          2.2607    2.0522   -1.0806 C.3       1 <0>        -0.1104
      9 C6          1.8315    2.7770   -2.3302 C.ar      1 <0>        -0.0940
     10 C7          2.7260    3.5924   -2.9980 C.ar      1 <0>        -0.1168
     11 C8          2.3307    4.2614   -4.1413 C.ar      1 <0>        -0.1251
     12 C9          1.0439    4.1073   -4.6222 C.ar      1 <0>        -0.1225
     13 C10         0.1497    3.2912   -3.9549 C.ar      1 <0>        -0.1252
     14 C11         0.5436    2.6260   -2.8089 C.ar      1 <0>        -0.1199
     15 C12         3.4225    0.0350   -0.2259 C.2       1 <0>         0.0978
     16 C13         2.8140    0.1918    0.9787 C.2       1 <0>        -0.2477
     17 C14         3.3581   -0.4343    2.1059 C.2       1 <0>         0.0207
     18 N1          4.4451   -1.1650    1.9982 N.2       1 <0>        -0.1422
     19 C15         5.0506   -1.3247    0.8159 C.2       1 <0>         0.1232
     20 N2          4.5417   -0.7309   -0.3047 N.pl3     1 <0>        -0.0875
     21 N3          5.3856   -1.0905   -1.3638 N.2       1 <0>        -0.2060
     22 C16         6.3289   -1.8602   -0.8603 C.2       1 <0>         0.1602
     23 N4          6.1362   -1.9979    0.4493 N.2       1 <0>        -0.2611
     24 N5          7.3720   -2.4318   -1.5840 N.pl3     1 <0>        -0.3766
     25 H2          2.1549   -2.6044   -5.1495 H         1 <0>         0.0895
     26 H3          0.4274   -2.6500   -5.5760 H         1 <0>         0.0891
     27 H4          1.3742   -1.1687   -5.8548 H         1 <0>         0.0875
     28 H5          0.7333   -2.3852   -3.1296 H         1 <0>         0.0907
     29 H6         -0.0474   -0.9495   -3.8350 H         1 <0>         0.0874
     30 H7          3.0081    2.6462   -0.5546 H         1 <0>         0.1049
     31 H8          1.3966    1.9000   -0.4339 H         1 <0>         0.1094
     32 H9          3.7322    3.7104   -2.6240 H         1 <0>         0.1311
     33 H10         3.0281    4.9020   -4.6605 H         1 <0>         0.1318
     34 H11         0.7361    4.6273   -5.5174 H         1 <0>         0.1306
     35 H12        -0.8567    3.1735   -4.3288 H         1 <0>         0.1318
     36 H13        -0.1551    1.9886   -2.2874 H         1 <0>         0.1409
     37 H14         1.9205    0.7924    1.0654 H         1 <0>         0.1718
     38 H15         2.8828   -0.3162    3.0684 H         1 <0>         0.1797
     39 H16         7.4438   -2.2737   -2.5384 H         1 <0>         0.2401
     40 H17         8.0269   -2.9881   -1.1339 H         1 <0>         0.2443
@<TRIPOS>BOND
     1    1    2 1
     2    1   25 1
     3    1   26 1
     4    1   27 1
     5    2    3 1
     6    2   28 1
     7    2   29 1
     8    3    4 1
     9    4    5 2
    10    4    6 1
    11    6    7 1
    12    6    8 1
    13    6   15 1
    14    8    9 1
    15    8   30 1
    16    8   31 1
    17    9   14 ar
    18    9   10 ar
    19   10   11 ar
    20   10   32 1
    21   11   12 ar
    22   11   33 1
    23   12   13 ar
    24   12   34 1
    25   13   14 ar
    26   13   35 1
    27   14   36 1
    28   15   20 1
    29   15   16 2
    30   16   17 1
    31   16   37 1
    32   17   18 2
    33   17   38 1
    34   18   19 1
    35   19   23 2
    36   19   20 1
    37   20   21 1
    38   21   22 2
    39   22   23 1
    40   22   24 1
    41   24   39 1
    42   24   40 1
@<TRIPOS>MOLECULE
ZINC01408856
   41    43     0     0     0
SMALL
USER_CHARGES

@<TRIPOS>ATOM
      1 C1          1.3157    8.3674    0.0757 C.3       1 <0>        -0.2157
      2 C2          2.0558    7.0284    0.0574 C.3       1 <0>        -0.0007
      3 O1          1.0919    5.9425    0.0573 O.3       1 <0>        -0.2779
      4 C3          1.5840    4.6870    0.0421 C.2       1 <0>         0.3816
      5 O2          2.7864    4.5054    0.0292 O.2       1 <0>        -0.3429
      6 C4          0.6693    3.5409    0.0410 C.2       1 <0>        -0.2629
      7 C5         -0.7382    3.5920    0.0556 C.2       1 <0>        -0.0263
      8 N1         -1.2022    2.3705    0.0453 N.2       1 <0>        -0.1161
      9 N2         -0.1358    1.4686    0.0319 N.pl3     1 <0>        -0.1130
     10 C6          1.0300    2.1842    0.0261 C.2       1 <0>         0.0838
     11 N3          2.2095    1.5545    0.0084 N.2       1 <0>        -0.0634
     12 N4          2.2900    0.2712   -0.0037 N.2       1 <0>         0.0505
     13 C7          1.1941   -0.4977    0.0009 C.2       1 <0>        -0.3095
     14 C8         -0.0702    0.1028    0.0193 C.2       1 <0>         0.2968
     15 N5         -1.2086   -0.6558    0.0248 N.pl3     1 <0>        -0.3369
     16 C9          1.3178   -1.9640   -0.0128 C.2       1 <0>         0.3998
     17 O3          0.3227   -2.6574   -0.1063 O.2       1 <0>        -0.4013
     18 N6          2.5335   -2.5386    0.0784 N.am      1 <0>        -0.2923
     19 C10         2.6604   -3.9271   -0.0290 C.ar      1 <0>         0.0556
     20 C11         3.7762   -4.4785   -0.6460 C.ar      1 <0>        -0.1566
     21 C12         3.8987   -5.8500   -0.7499 C.ar      1 <0>        -0.1086
     22 C13         2.9122   -6.6745   -0.2401 C.ar      1 <0>        -0.1391
     23 C14         1.8006   -6.1289    0.3750 C.ar      1 <0>        -0.0607
     24 C15         1.6740   -4.7579    0.4861 C.ar      1 <0>        -0.1273
     25 C16         0.7287   -7.0312    0.9300 C.3       1 <0>        -0.1738
     26 H1          0.6819    8.4443   -0.8077 H         1 <0>         0.0846
     27 H2          0.6987    8.4292    0.9721 H         1 <0>         0.0845
     28 H3          2.0393    9.1825    0.0758 H         1 <0>         0.0894
     29 H4          2.6897    6.9515    0.9408 H         1 <0>         0.0900
     30 H5          2.6729    6.9666   -0.8390 H         1 <0>         0.0902
     31 H6         -1.3352    4.4919    0.0693 H         1 <0>         0.2122
     32 H7         -2.0751   -0.2293    0.1143 H         1 <0>         0.2447
     33 H8         -1.1492   -1.6202   -0.0607 H         1 <0>         0.2927
     34 H9          3.3204   -1.9890    0.2184 H         1 <0>         0.2568
     35 H10         4.5472   -3.8352   -1.0437 H         1 <0>         0.1343
     36 H11         4.7659   -6.2793   -1.2295 H         1 <0>         0.1333
     37 H12         3.0105   -7.7469   -0.3223 H         1 <0>         0.1313
     38 H13         0.8075   -4.3325    0.9704 H         1 <0>         0.1591
     39 H14         0.9585   -7.2729    1.9677 H         1 <0>         0.0860
     40 H15        -0.2349   -6.5241    0.8799 H         1 <0>         0.0855
     41 H16         0.6870   -7.9491    0.3437 H         1 <0>         0.0822
@<TRIPOS>BOND
     1    1    2 1
     2    1   26 1
     3    1   27 1
     4    1   28 1
     5    2    3 1
     6    2   29 1
     7    2   30 1
     8    3    4 1
     9    4    5 2
    10    4    6 1
    11    6   10 2
    12    6    7 1
    13    7    8 2
    14    7   31 1
    15    8    9 1
    16    9   14 1
    17    9   10 1
    18   10   11 1
    19   11   12 2
    20   12   13 1
    21   13   14 2
    22   13   16 1
    23   14   15 1
    24   15   32 1
    25   15   33 1
    26   16   17 2
    27   16   18 am
    28   18   19 1
    29   18   34 1
    30   19   24 ar
    31   19   20 ar
    32   20   21 ar
    33   20   35 1
    34   21   22 ar
    35   21   36 1
    36   22   23 ar
    37   22   37 1
    38   23   24 ar
    39   23   25 1
    40   24   38 1
    41   25   39 1
    42   25   40 1
    43   25   41 1
@<TRIPOS>MOLECULE
ZINC01408883
   41    43     0     0     0
SMALL
USER_CHARGES

@<TRIPOS>ATOM
      1 C1         -0.8962    5.1524   12.0537 C.3       1 <0>        -0.2157
      2 C2         -0.8240    5.0010   10.5329 C.3       1 <0>        -0.0007
      3 O1         -0.6857    3.5963   10.1923 O.3       1 <0>        -0.2776
      4 C3         -0.6077    3.2889    8.8816 C.2       1 <0>         0.3815
      5 O2         -0.6541    4.1715    8.0462 O.2       1 <0>        -0.3432
      6 C4         -0.4669    1.8904    8.4635 C.2       1 <0>        -0.2618
      7 C5         -0.3989    0.7658    9.3089 C.2       1 <0>        -0.0272
      8 N1         -0.2743   -0.3058    8.5717 N.2       1 <0>        -0.1132
      9 N2         -0.2547    0.0575    7.2232 N.pl3     1 <0>        -0.1071
     10 C6         -0.3736    1.4181    7.1448 C.2       1 <0>         0.0780
     11 N3         -0.3827    2.0283    5.9549 N.2       1 <0>        -0.0560
     12 N4         -0.2758    1.3683    4.8565 N.2       1 <0>         0.0446
     13 C7         -0.1617    0.0345    4.8511 C.2       1 <0>        -0.2956
     14 C8         -0.1459   -0.6618    6.0653 C.2       1 <0>         0.2924
     15 N5         -0.0253   -2.0242    6.0929 N.pl3     1 <0>        -0.3420
     16 C9         -0.0476   -0.6942    3.5777 C.2       1 <0>         0.3936
     17 O3         -0.0410   -1.9107    3.5716 O.2       1 <0>        -0.3943
     18 N6          0.0495   -0.0139    2.4184 N.am      1 <0>        -0.2932
     19 C10         0.0643   -0.7037    1.2020 C.ar      1 <0>         0.0527
     20 C11         0.6776   -1.9471    1.1143 C.ar      1 <0>        -0.1234
     21 C12         0.6901   -2.6258   -0.0882 C.ar      1 <0>        -0.1198
     22 C13         0.0929   -2.0690   -1.2045 C.ar      1 <0>        -0.1357
     23 C14        -0.5233   -0.8342   -1.1193 C.ar      1 <0>        -0.1133
     24 C15        -0.5344   -0.1475    0.0792 C.ar      1 <0>        -0.0969
     25 C16        -1.2008    1.2011    0.1697 C.3       1 <0>        -0.1789
     26 H1          0.0158    4.7580   12.5017 H         1 <0>         0.0846
     27 H2         -1.0000    6.2069   12.3093 H         1 <0>         0.0895
     28 H3         -1.7558    4.6001   12.4334 H         1 <0>         0.0847
     29 H4          0.0356    5.5533   10.1532 H         1 <0>         0.0901
     30 H5         -1.7360    5.3954   10.0848 H         1 <0>         0.0902
     31 H6         -0.4427    0.7859   10.3878 H         1 <0>         0.2124
     32 H7          0.3982   -2.4886    5.3540 H         1 <0>         0.2838
     33 H8         -0.3633   -2.5257    6.8512 H         1 <0>         0.2471
     34 H9          0.1091    0.9542    2.4277 H         1 <0>         0.2563
     35 H10         1.1438   -2.3826    1.9857 H         1 <0>         0.1580
     36 H11         1.1664   -3.5926   -0.1569 H         1 <0>         0.1327
     37 H12         0.1037   -2.6021   -2.1438 H         1 <0>         0.1301
     38 H13        -0.9927   -0.4041   -1.9917 H         1 <0>         0.1336
     39 H14        -0.4740    1.9814   -0.0562 H         1 <0>         0.0863
     40 H15        -2.0209    1.2500   -0.5467 H         1 <0>         0.0882
     41 H16        -1.5895    1.3474    1.1775 H         1 <0>         0.0852
@<TRIPOS>BOND
     1    1    2 1
     2    1   26 1
     3    1   27 1
     4    1   28 1
     5    2    3 1
     6    2   29 1
     7    2   30 1
     8    3    4 1
     9    4    5 2
    10    4    6 1
    11    6   10 2
    12    6    7 1
    13    7    8 2
    14    7   31 1
    15    8    9 1
    16    9   14 1
    17    9   10 1
    18   10   11 1
    19   11   12 2
    20   12   13 1
    21   13   14 2
    22   13   16 1
    23   14   15 1
    24   15   32 1
    25   15   33 1
    26   16   17 2
    27   16   18 am
    28   18   19 1
    29   18   34 1
    30   19   24 ar
    31   19   20 ar
    32   20   21 ar
    33   20   35 1
    34   21   22 ar
    35   21   36 1
    36   22   23 ar
    37   22   37 1
    38   23   24 ar
    39   23   38 1
    40   24   25 1
    41   25   39 1
    42   25   40 1
    43   25   41 1
@<TRIPOS>MOLECULE
ZINC01409204
   41    43     0     0     0
SMALL
USER_CHARGES

@<TRIPOS>ATOM
      1 C1          1.0084   -6.9988   -0.0022 C.3       1 <0>        -0.2135
      2 C2          0.2723   -5.6576    0.0064 C.3       1 <0>        -0.0065
      3 O1          1.2241   -4.5918    0.0007 O.3       1 <0>        -0.2460
      4 C3          0.7355   -3.3342    0.0071 C.2       1 <0>         0.3920
      5 O2         -0.4667   -3.1488    0.0172 O.2       1 <0>        -0.3369
      6 C4          1.6525   -2.1924    0.0019 C.2       1 <0>        -0.1241
      7 C5          1.2949   -0.8420    0.0073 C.2       1 <0>         0.0021
      8 N1          0.1240   -0.1962    0.0188 N.2       1 <0>        -0.0285
      9 N2          0.0624    1.0885    0.0220 N.2       1 <0>         0.0263
     10 C6          1.1688    1.8447    0.0141 C.2       1 <0>        -0.2919
     11 C7          2.4269    1.2308    0.0011 C.2       1 <0>         0.2528
     12 N3          2.4764   -0.1371   -0.0014 N.pl3     1 <0>        -0.1159
     13 C8          3.4913   -1.0418   -0.0116 C.2       1 <0>        -0.1267
     14 N4          3.0014   -2.2481   -0.0096 N.2       1 <0>        -0.0603
     15 N5          3.5721    1.9755   -0.0067 N.pl3     1 <0>        -0.3511
     16 C9          1.0619    3.3112    0.0180 C.2       1 <0>         0.3986
     17 O3          2.0630    3.9944   -0.0883 O.2       1 <0>        -0.4039
     18 N6         -0.1451    3.8986    0.1394 N.am      1 <0>        -0.2911
     19 C10        -0.2581    5.2895    0.0490 C.ar      1 <0>         0.0460
     20 C11         0.7480    6.1037    0.5529 C.ar      1 <0>        -0.1229
     21 C12         0.6360    7.4769    0.4569 C.ar      1 <0>        -0.1149
     22 C13        -0.4816    8.0416   -0.1299 C.ar      1 <0>        -0.0850
     23 C14        -1.4878    7.2339   -0.6275 C.ar      1 <0>        -0.1124
     24 C15        -1.3793    5.8599   -0.5398 C.ar      1 <0>        -0.1468
     25 C16        -0.6031    9.5405   -0.2278 C.3       1 <0>        -0.1735
     26 H1          1.6265   -7.0684   -0.8973 H         1 <0>         0.0867
     27 H2          1.6409   -7.0718    0.8826 H         1 <0>         0.0866
     28 H3          0.2824   -7.8118    0.0022 H         1 <0>         0.0867
     29 H4         -0.3458   -5.5880    0.9015 H         1 <0>         0.0861
     30 H5         -0.3602   -5.5846   -0.8784 H         1 <0>         0.0862
     31 H6          4.5432   -0.7972   -0.0197 H         1 <0>         0.2094
     32 H7          4.4353    1.5384    0.0624 H         1 <0>         0.2272
     33 H8          3.5221    2.9413   -0.0813 H         1 <0>         0.2969
     34 H9         -0.9354    3.3565    0.2894 H         1 <0>         0.2570
     35 H10         1.6189    5.6634    1.0156 H         1 <0>         0.1580
     36 H11         1.4201    8.1105    0.8445 H         1 <0>         0.1341
     37 H12        -2.3595    7.6781   -1.0848 H         1 <0>         0.1343
     38 H13        -2.1653    5.2297   -0.9289 H         1 <0>         0.1350
     39 H14        -1.1017    9.9235    0.6626 H         1 <0>         0.0861
     40 H15         0.3907    9.9813   -0.3056 H         1 <0>         0.0820
     41 H16        -1.1862    9.8009   -1.1111 H         1 <0>         0.0818
@<TRIPOS>BOND
     1    1    2 1
     2    1   26 1
     3    1   27 1
     4    1   28 1
     5    2    3 1
     6    2   29 1
     7    2   30 1
     8    3    4 1
     9    4    5 2
    10    4    6 1
    11    6   14 1
    12    6    7 2
    13    7   12 1
    14    7    8 1
    15    8    9 2
    16    9   10 1
    17   10   11 2
    18   10   16 1
    19   11   12 1
    20   11   15 1
    21   12   13 1
    22   13   14 2
    23   13   31 1
    24   15   32 1
    25   15   33 1
    26   16   17 2
    27   16   18 am
    28   18   19 1
    29   18   34 1
    30   19   24 ar
    31   19   20 ar
    32   20   21 ar
    33   20   35 1
    34   21   22 ar
    35   21   36 1
    36   22   23 ar
    37   22   25 1
    38   23   24 ar
    39   23   37 1
    40   24   38 1
    41   25   39 1
    42   25   40 1
    43   25   41 1
@<TRIPOS>MOLECULE
ZINC01409204
   42    44     0     0     0
SMALL
USER_CHARGES

@<TRIPOS>ATOM
      1 C1          1.0084   -6.9988   -0.0022 C.3       1 <0>        -0.2157
      2 C2          0.2723   -5.6576    0.0064 C.3       1 <0>        -0.0053
      3 O1          1.2241   -4.5918    0.0007 O.3       1 <0>        -0.2760
      4 C3          0.7355   -3.3342    0.0071 C.2       1 <0>         0.3628
      5 O2         -0.4667   -3.1488    0.0172 O.2       1 <0>        -0.2629
      6 C4          1.6525   -2.1924    0.0019 C.2       1 <0>        -0.1069
      7 C5          1.2949   -0.8420    0.0073 C.2       1 <0>         0.0707
      8 N1          0.1240   -0.1962    0.0188 N.2       1 <0>        -0.0158
      9 N2          0.0624    1.0885    0.0220 N.2       1 <0>         0.0917
     10 C6          1.1688    1.8447    0.0141 C.2       1 <0>        -0.2292
     11 C7          2.4269    1.2308    0.0011 C.2       1 <0>         0.2528
     12 N3          2.4764   -0.1371   -0.0014 N.pl3     1 <0>        -0.0935
     13 C8          3.4913   -1.0418   -0.0116 C.cat     1 <0>        -0.0538
     14 N4          3.5721    1.9755   -0.0067 N.pl3     1 <0>        -0.3114
     15 C9          1.0619    3.3112    0.0180 C.2       1 <0>         0.3787
     16 O3          2.0630    3.9944   -0.0883 O.2       1 <0>        -0.3808
     17 N5         -0.1451    3.8986    0.1394 N.am      1 <0>        -0.2630
     18 C10        -0.2581    5.2895    0.0490 C.ar      1 <0>         0.0148
     19 C11         0.7480    6.1037    0.5529 C.ar      1 <0>        -0.1168
     20 C12         0.6360    7.4769    0.4569 C.ar      1 <0>        -0.1130
     21 C13        -0.4816    8.0416   -0.1299 C.ar      1 <0>        -0.0622
     22 C14        -1.4878    7.2339   -0.6275 C.ar      1 <0>        -0.1085
     23 C15        -1.3793    5.8599   -0.5398 C.ar      1 <0>        -0.1327
     24 C16        -0.6031    9.5405   -0.2278 C.3       1 <0>        -0.1792
     25 H1          1.6265   -7.0684   -0.8973 H         1 <0>         0.0894
     26 H2          1.6409   -7.0718    0.8826 H         1 <0>         0.0892
     27 H3          0.2824   -7.8118    0.0022 H         1 <0>         0.1143
     28 H4         -0.3458   -5.5880    0.9015 H         1 <0>         0.1035
     29 H5         -0.3602   -5.5846   -0.8784 H         1 <0>         0.1036
     30 H6          4.5432   -0.7972   -0.0197 H         1 <0>         0.2462
     31 H7          4.4353    1.5384    0.0624 H         1 <0>         0.2360
     32 H8          3.5221    2.9413   -0.0813 H         1 <0>         0.3201
     33 H9         -0.9354    3.3565    0.2894 H         1 <0>         0.2572
     34 H10         1.6189    5.6634    1.0156 H         1 <0>         0.1511
     35 H11         1.4201    8.1105    0.8445 H         1 <0>         0.1434
     36 H12        -2.3595    7.6781   -1.0848 H         1 <0>         0.1459
     37 H13        -2.1653    5.2297   -0.9289 H         1 <0>         0.1369
     38 H14        -1.1017    9.9235    0.6626 H         1 <0>         0.0959
     39 H15         0.3907    9.9813   -0.3056 H         1 <0>         0.0888
     40 H16        -1.1862    9.8009   -1.1111 H         1 <0>         0.0897
     41 N6          3.0023   -2.2495   -0.0096 N.pl3     1 <0>         0.0034
     42 H17         3.5580   -3.1129   -0.0158 H         1 <0>         0.3405
@<TRIPOS>BOND
     1    1    2 1
     2    1   25 1
     3    1   26 1
     4    1   27 1
     5    2    3 1
     6    2   28 1
     7    2   29 1
     8    3    4 1
     9    4    5 2
    10    4    6 1
    11    6    7 2
    12    6   41 1
    13    7   12 1
    14    7    8 1
    15    8    9 2
    16    9   10 1
    17   10   11 2
    18   10   15 1
    19   11   12 1
    20   11   14 1
    21   12   13 1
    22   13   30 1
    23   13   41 2
    24   14   31 1
    25   14   32 1
    26   15   16 2
    27   15   17 am
    28   17   18 1
    29   17   33 1
    30   18   23 ar
    31   18   19 ar
    32   19   20 ar
    33   19   34 1
    34   20   21 ar
    35   20   35 1
    36   21   22 ar
    37   21   24 1
    38   22   23 ar
    39   22   36 1
    40   23   37 1
    41   24   38 1
    42   24   39 1
    43   24   40 1
    44   41   42 1
@<TRIPOS>MOLECULE
ZINC01409208
   41    43     0     0     0
SMALL
USER_CHARGES

@<TRIPOS>ATOM
      1 C1          0.5384    7.9670    1.5653 C.3       1 <0>        -0.2135
      2 C2         -0.1276    6.6082    1.3397 C.3       1 <0>        -0.0065
      3 O1          0.8726    5.6296    1.0498 O.3       1 <0>        -0.2462
      4 C3          0.4487    4.3689    0.8238 C.2       1 <0>         0.3922
      5 O2         -0.7386    4.1086    0.8718 O.2       1 <0>        -0.3377
      6 C4          1.4180    3.3138    0.5206 C.2       1 <0>        -0.1260
      7 C5          1.1292    1.9710    0.2663 C.2       1 <0>        -0.0010
      8 N1         -0.0040    1.2628    0.2171 N.2       1 <0>        -0.0252
      9 N2         -0.0015    0.0035   -0.0449 N.2       1 <0>         0.0237
     10 C6          1.1372   -0.6622   -0.2818 C.2       1 <0>        -0.2748
     11 C7          2.3587    0.0205   -0.2455 C.2       1 <0>         0.2441
     12 N3          2.3401    1.3602    0.0347 N.pl3     1 <0>        -0.1117
     13 C8          3.3052    2.3110    0.1489 C.2       1 <0>        -0.1280
     14 N4          2.7577    3.4572    0.4346 N.2       1 <0>        -0.0615
     15 N5          3.5354   -0.6315   -0.4832 N.pl3     1 <0>        -0.3566
     16 C9          1.1037   -2.1024   -0.5778 C.2       1 <0>         0.3884
     17 O3          2.1431   -2.7245   -0.6909 O.2       1 <0>        -0.4126
     18 N6         -0.0784   -2.7331   -0.7238 N.am      1 <0>        -0.3552
     19 C10        -0.1118   -4.1677   -1.0186 C.3       1 <0>         0.0355
     20 C11        -1.5435   -4.6240   -1.1323 C.ar      1 <0>        -0.1156
     21 C12        -2.2148   -5.0792   -0.0130 C.ar      1 <0>        -0.1077
     22 C13        -3.5297   -5.4932   -0.1163 C.ar      1 <0>        -0.1288
     23 C14        -4.1701   -5.4615   -1.3410 C.ar      1 <0>        -0.1156
     24 C15        -3.4970   -5.0116   -2.4615 C.ar      1 <0>        -0.1292
     25 C16        -2.1838   -4.5926   -2.3571 C.ar      1 <0>        -0.1090
     26 H1          1.2320    7.8970    2.4032 H         1 <0>         0.0866
     27 H2          1.0824    8.2586    0.6668 H         1 <0>         0.0866
     28 H3         -0.2245    8.7134    1.7864 H         1 <0>         0.0864
     29 H4         -0.8212    6.6781    0.5017 H         1 <0>         0.0859
     30 H5         -0.6716    6.3166    2.2381 H         1 <0>         0.0860
     31 H6          4.3642    2.1415    0.0218 H         1 <0>         0.2098
     32 H7          3.5364   -1.4647   -0.9799 H         1 <0>         0.2896
     33 H8          4.3698   -0.2612   -0.1553 H         1 <0>         0.2296
     34 H9         -0.9071   -2.2371   -0.6336 H         1 <0>         0.2514
     35 H10         0.4058   -4.3575   -1.9590 H         1 <0>         0.0985
     36 H11         0.3814   -4.7153   -0.2155 H         1 <0>         0.1007
     37 H12        -1.7132   -5.1079    0.9431 H         1 <0>         0.1348
     38 H13        -4.0554   -5.8451    0.7590 H         1 <0>         0.1337
     39 H14        -5.1961   -5.7884   -1.4225 H         1 <0>         0.1324
     40 H15        -3.9972   -4.9871   -3.4183 H         1 <0>         0.1333
     41 H16        -1.6579   -4.2412   -3.2325 H         1 <0>         0.1335
@<TRIPOS>BOND
     1    1    2 1
     2    1   26 1
     3    1   27 1
     4    1   28 1
     5    2    3 1
     6    2   29 1
     7    2   30 1
     8    3    4 1
     9    4    5 2
    10    4    6 1
    11    6   14 1
    12    6    7 2
    13    7   12 1
    14    7    8 1
    15    8    9 2
    16    9   10 1
    17   10   11 2
    18   10   16 1
    19   11   12 1
    20   11   15 1
    21   12   13 1
    22   13   14 2
    23   13   31 1
    24   15   32 1
    25   15   33 1
    26   16   17 2
    27   16   18 am
    28   18   19 1
    29   18   34 1
    30   19   20 1
    31   19   35 1
    32   19   36 1
    33   20   25 ar
    34   20   21 ar
    35   21   22 ar
    36   21   37 1
    37   22   23 ar
    38   22   38 1
    39   23   24 ar
    40   23   39 1
    41   24   25 ar
    42   24   40 1
    43   25   41 1
@<TRIPOS>MOLECULE
ZINC01409208
   42    44     0     0     0
SMALL
USER_CHARGES

@<TRIPOS>ATOM
      1 C1          0.5384    7.9670    1.5653 C.3       1 <0>        -0.2157
      2 C2         -0.1276    6.6082    1.3397 C.3       1 <0>        -0.0052
      3 O1          0.8726    5.6296    1.0498 O.3       1 <0>        -0.2760
      4 C3          0.4487    4.3689    0.8238 C.2       1 <0>         0.3626
      5 O2         -0.7386    4.1086    0.8718 O.2       1 <0>        -0.2632
      6 C4          1.4180    3.3138    0.5206 C.2       1 <0>        -0.1054
      7 C5          1.1292    1.9710    0.2663 C.2       1 <0>         0.0651
      8 N1         -0.0040    1.2628    0.2171 N.2       1 <0>        -0.0098
      9 N2         -0.0015    0.0035   -0.0449 N.2       1 <0>         0.0891
     10 C6          1.1372   -0.6622   -0.2818 C.2       1 <0>        -0.2137
     11 C7          2.3587    0.0205   -0.2455 C.2       1 <0>         0.2453
     12 N3          2.3401    1.3602    0.0347 N.pl3     1 <0>        -0.0893
     13 C8          3.3052    2.3110    0.1489 C.cat     1 <0>        -0.0540
     14 N4          3.5354   -0.6315   -0.4832 N.pl3     1 <0>        -0.3187
     15 C9          1.1037   -2.1024   -0.5778 C.2       1 <0>         0.3692
     16 O3          2.1431   -2.7245   -0.6909 O.2       1 <0>        -0.3876
     17 N5         -0.0784   -2.7331   -0.7238 N.am      1 <0>        -0.3300
     18 C10        -0.1118   -4.1677   -1.0186 C.3       1 <0>         0.0340
     19 C11        -1.5435   -4.6240   -1.1323 C.ar      1 <0>        -0.1330
     20 C12        -2.2148   -5.0792   -0.0130 C.ar      1 <0>        -0.1064
     21 C13        -3.5297   -5.4932   -0.1163 C.ar      1 <0>        -0.1243
     22 C14        -4.1701   -5.4615   -1.3410 C.ar      1 <0>        -0.1033
     23 C15        -3.4970   -5.0116   -2.4615 C.ar      1 <0>        -0.1247
     24 C16        -2.1838   -4.5926   -2.3571 C.ar      1 <0>        -0.1080
     25 H1          1.2320    7.8970    2.4032 H         1 <0>         0.0893
     26 H2          1.0824    8.2586    0.6668 H         1 <0>         0.0893
     27 H3         -0.2245    8.7134    1.7864 H         1 <0>         0.1141
     28 H4         -0.8212    6.6781    0.5017 H         1 <0>         0.1034
     29 H5         -0.6716    6.3166    2.2381 H         1 <0>         0.1035
     30 H6          4.3642    2.1415    0.0218 H         1 <0>         0.2469
     31 H7          3.5364   -1.4647   -0.9799 H         1 <0>         0.3136
     32 H8          4.3698   -0.2612   -0.1553 H         1 <0>         0.2398
     33 H9         -0.9071   -2.2371   -0.6336 H         1 <0>         0.2529
     34 H10         0.4058   -4.3575   -1.9590 H         1 <0>         0.1079
     35 H11         0.3814   -4.7153   -0.2155 H         1 <0>         0.1104
     36 H12        -1.7132   -5.1079    0.9431 H         1 <0>         0.1337
     37 H13        -4.0554   -5.8451    0.7590 H         1 <0>         0.1415
     38 H14        -5.1961   -5.7884   -1.4225 H         1 <0>         0.1420
     39 H15        -3.9972   -4.9871   -3.4183 H         1 <0>         0.1410
     40 H16        -1.6579   -4.2412   -3.2325 H         1 <0>         0.1322
     41 N6          2.7586    3.4586    0.4348 N.pl3     1 <0>         0.0018
     42 H17         3.2687    4.3388    0.5738 H         1 <0>         0.3400
@<TRIPOS>BOND
     1    1    2 1
     2    1   25 1
     3    1   26 1
     4    1   27 1
     5    2    3 1
     6    2   28 1
     7    2   29 1
     8    3    4 1
     9    4    5 2
    10    4    6 1
    11    6    7 2
    12    6   41 1
    13    7   12 1
    14    7    8 1
    15    8    9 2
    16    9   10 1
    17   10   11 2
    18   10   15 1
    19   11   12 1
    20   11   14 1
    21   12   13 1
    22   13   30 1
    23   13   41 2
    24   14   31 1
    25   14   32 1
    26   15   16 2
    27   15   17 am
    28   17   18 1
    29   17   33 1
    30   18   19 1
    31   18   34 1
    32   18   35 1
    33   19   24 ar
    34   19   20 ar
    35   20   21 ar
    36   20   36 1
    37   21   22 ar
    38   21   37 1
    39   22   23 ar
    40   22   38 1
    41   23   24 ar
    42   23   39 1
    43   24   40 1
    44   41   42 1
@<TRIPOS>MOLECULE
ZINC01410157
   38    40     0     0     0
SMALL
USER_CHARGES

@<TRIPOS>ATOM
      1 C1         -2.8418    6.7196   -0.5716 C.3       1 <0>        -0.1746
      2 C2         -1.7236    5.7107   -0.6262 C.2       1 <0>         0.0545
      3 C3         -0.4751    6.1726   -0.8977 C.2       1 <0>        -0.2909
      4 C4          0.5952    5.2700   -1.0498 C.2       1 <0>         0.2932
      5 O1          1.7322    5.6456   -1.2610 O.2       1 <0>        -0.2401
      6 C5          0.2417    3.8047   -0.9339 C.3       1 <0>        -0.1079
      7 H1          0.3055    3.3742   -1.8342 H         1 <0>         0.1321
      8 C6         -1.1503    3.4661   -0.4672 C.2       1 <0>        -0.1786
      9 N1         -2.0340    4.4395   -0.4048 N.2       1 <0>        -0.1726
     10 S1         -1.5659    1.8892    0.0209 S.3       1 <0>         0.4150
     11 C7         -0.0126    1.0758    0.0084 C.3       1 <0>        -0.3726
     12 C8          1.1582    1.7301    0.0003 C.2       1 <0>        -0.0578
     13 N2          1.1931    3.1378   -0.0553 N.2       1 <0>        -0.1061
     14 C9          2.4116    0.9748    0.0497 C.2       1 <0>         0.3503
     15 O2          3.4778    1.5633    0.0430 O.2       1 <0>        -0.2453
     16 N3          2.3854   -0.3717    0.1026 N.am      1 <0>        -0.3411
     17 N4          3.5847   -1.0944    0.1499 N.2       1 <0>         0.0322
     18 C10         3.5594   -2.3914    0.2008 C.2       1 <0>        -0.1062
     19 C11         4.8209   -3.1516    0.2505 C.ar      1 <0>        -0.0824
     20 C12         4.7982   -4.5469    0.3112 C.ar      1 <0>        -0.0938
     21 C13         5.9823   -5.2524    0.3532 C.ar      1 <0>        -0.1458
     22 C14         7.1943   -4.5830    0.3456 C.ar      1 <0>        -0.0974
     23 C15         7.2301   -3.2025    0.2905 C.ar      1 <0>        -0.1618
     24 C16         6.0502   -2.4783    0.2430 C.ar      1 <0>         0.1161
     25 O3          6.0844   -1.1217    0.1889 O.3       1 <0>        -0.2655
     26 H2         -3.2807    6.8295   -1.5634 H         1 <0>         0.0977
     27 H3         -3.6051    6.3784    0.1276 H         1 <0>         0.1012
     28 H4         -2.4485    7.6804   -0.2399 H         1 <0>         0.0913
     29 H5         -0.3031    7.2341   -0.9975 H         1 <0>         0.1638
     30 H6          0.0021   -0.0041    0.0024 H         1 <0>         0.1505
     31 H7          0.2886    0.9181    0.9488 H         1 <0>         0.1410
     32 H8          1.5361   -0.8404    0.1079 H         1 <0>         0.1971
     33 H9          2.6139   -2.9133    0.2067 H         1 <0>         0.1143
     34 H10         3.8548   -5.0725    0.3215 H         1 <0>         0.1314
     35 H11         5.9642   -6.3313    0.3963 H         1 <0>         0.1347
     36 H12         8.1171   -5.1430    0.3825 H         1 <0>         0.1351
     37 H13         8.1794   -2.6875    0.2849 H         1 <0>         0.1469
     38 H14         6.0802   -0.6933    1.0559 H         1 <0>         0.2421
@<TRIPOS>BOND
     1    1    2 1
     2    1   26 1
     3    1   27 1
     4    1   28 1
     5    2    9 1
     6    2    3 2
     7    3    4 1
     8    3   29 1
     9    4    5 2
    10    4    6 1
    11    6    7 1
    12    6    8 1
    13    6   13 1
    14    8    9 2
    15    8   10 1
    16   10   11 1
    17   11   30 1
    18   11   31 1
    19   11   12 1
    20   12   14 1
    21   12   13 2
    22   14   15 2
    23   14   16 am
    24   16   17 1
    25   16   32 1
    26   17   18 2
    27   18   19 1
    28   18   33 1
    29   19   24 ar
    30   19   20 ar
    31   20   21 ar
    32   20   34 1
    33   21   22 ar
    34   21   35 1
    35   22   23 ar
    36   22   36 1
    37   23   24 ar
    38   23   37 1
    39   24   25 1
    40   25   38 1
@<TRIPOS>MOLECULE
ZINC01410159
   38    40     0     0     0
SMALL
USER_CHARGES

@<TRIPOS>ATOM
      1 C1         -0.0122    1.0873    0.0079 C.3       1 <0>        -0.1713
      2 C2         -0.7178    1.5729    1.2479 C.2       1 <0>         0.0564
      3 C3          0.0110    1.7960    2.3765 C.2       1 <0>        -0.2892
      4 C4         -0.6121    2.3319    3.5090 C.2       1 <0>         0.2785
      5 O1          0.0249    2.4922    4.5321 O.2       1 <0>        -0.2466
      6 C5         -2.0578    2.7080    3.4647 C.3       1 <0>        -0.1012
      7 H1         -2.1430    3.7043    3.4587 H         1 <0>         0.1360
      8 C6         -2.7311    2.2328    2.2154 C.2       1 <0>        -0.1687
      9 N1         -2.0285    1.7748    1.2039 N.2       1 <0>        -0.1784
     10 S1         -4.4382    2.2327    2.0892 S.3       1 <0>         0.4009
     11 C7         -4.9307    2.7121    3.7000 C.3       1 <0>        -0.3750
     12 C8         -4.1299    2.6576    4.7721 C.2       1 <0>        -0.0576
     13 N2         -2.7859    2.2531    4.6445 N.2       1 <0>        -0.0971
     14 C9         -4.6557    3.0217    6.0892 C.2       1 <0>         0.3505
     15 O2         -3.9325    2.9741    7.0680 O.2       1 <0>        -0.2458
     16 N3         -5.9400    3.4094    6.2185 N.am      1 <0>        -0.3409
     17 N4         -6.4431    3.7577    7.4788 N.2       1 <0>         0.0319
     18 C10        -7.6802    4.1312    7.6033 C.2       1 <0>        -0.1058
     19 C11        -8.2094    4.4977    8.9290 C.ar      1 <0>        -0.0826
     20 C12        -9.5398    4.9001    9.0674 C.ar      1 <0>        -0.0936
     21 C13       -10.0289    5.2412   10.3109 C.ar      1 <0>        -0.1458
     22 C14        -9.2067    5.1861   11.4235 C.ar      1 <0>        -0.0972
     23 C15        -7.8885    4.7896   11.2997 C.ar      1 <0>        -0.1620
     24 C16        -7.3822    4.4388   10.0589 C.ar      1 <0>         0.1163
     25 O3         -6.0886    4.0437    9.9371 O.3       1 <0>        -0.2658
     26 H2          0.0025   -0.0026    0.0015 H         1 <0>         0.1004
     27 H3          1.0104    1.4646    0.0004 H         1 <0>         0.0916
     28 H4         -0.5393    1.4488   -0.8751 H         1 <0>         0.1010
     29 H5          1.0649    1.5608    2.3973 H         1 <0>         0.1662
     30 H6         -5.9393    3.0733    3.8369 H         1 <0>         0.1496
     31 H7         -5.3159    1.9235    4.1794 H         1 <0>         0.1429
     32 H8         -6.5160    3.4472    5.4390 H         1 <0>         0.1974
     33 H9         -8.3216    4.1734    6.7354 H         1 <0>         0.1144
     34 H10       -10.1846    4.9436    8.2021 H         1 <0>         0.1315
     35 H11       -11.0576    5.5522   10.4173 H         1 <0>         0.1348
     36 H12        -9.5977    5.4549   12.3937 H         1 <0>         0.1352
     37 H13        -7.2535    4.7488   12.1723 H         1 <0>         0.1468
     38 H14        -5.4705    4.7677    9.7673 H         1 <0>         0.2424
@<TRIPOS>BOND
     1    1    2 1
     2    1   26 1
     3    1   27 1
     4    1   28 1
     5    2    9 1
     6    2    3 2
     7    3    4 1
     8    3   29 1
     9    4    5 2
    10    4    6 1
    11    6    7 1
    12    6    8 1
    13    6   13 1
    14    8    9 2
    15    8   10 1
    16   10   11 1
    17   11   30 1
    18   11   31 1
    19   11   12 1
    20   12   14 1
    21   12   13 2
    22   14   15 2
    23   14   16 am
    24   16   17 1
    25   16   32 1
    26   17   18 2
    27   18   19 1
    28   18   33 1
    29   19   24 ar
    30   19   20 ar
    31   20   21 ar
    32   20   34 1
    33   21   22 ar
    34   21   35 1
    35   22   23 ar
    36   22   36 1
    37   23   24 ar
    38   23   37 1
    39   24   25 1
    40   25   38 1
@<TRIPOS>MOLECULE
ZINC01414222
   41    43     0     0     0
SMALL
USER_CHARGES

@<TRIPOS>ATOM
      1 C1          0.2514   -6.7953   -0.3785 C.3       1 <0>        -0.2135
      2 C2         -0.3460   -5.3868   -0.3774 C.3       1 <0>        -0.0065
      3 O1          0.6968   -4.4273   -0.1928 O.3       1 <0>        -0.2457
      4 C3          0.3357   -3.1276   -0.1677 C.2       1 <0>         0.3917
      5 O2         -0.8335   -2.8184   -0.2990 O.2       1 <0>        -0.3369
      6 C4          1.3514   -2.0889    0.0178 C.2       1 <0>        -0.1222
      7 C5          1.1286   -0.7107    0.0647 C.2       1 <0>        -0.0026
      8 N1          0.0349    0.0524   -0.0330 N.2       1 <0>        -0.0219
      9 N2          0.0980    1.3347    0.0447 N.2       1 <0>         0.0217
     10 C6          1.2634    1.9706    0.2276 C.2       1 <0>        -0.2795
     11 C7          2.4463    1.2301    0.3383 C.2       1 <0>         0.2471
     12 N3          2.3632   -0.1335    0.2532 N.pl3     1 <0>        -0.1124
     13 C8          3.2779   -1.1376    0.3146 C.2       1 <0>        -0.1253
     14 N4          2.6778   -2.2846    0.1757 N.2       1 <0>        -0.0610
     15 N5          3.6490    1.8506    0.5248 N.pl3     1 <0>        -0.3558
     16 C9          1.2994    3.4382    0.3120 C.2       1 <0>         0.3935
     17 O3          2.3673    4.0179    0.3744 O.2       1 <0>        -0.3958
     18 N6          0.1495    4.1411    0.3201 N.am      1 <0>        -0.2941
     19 C10         0.1842    5.5389    0.2919 C.ar      1 <0>         0.0599
     20 C11         1.1932    6.1963   -0.4005 C.ar      1 <0>        -0.1329
     21 C12         1.2246    7.5765   -0.4263 C.ar      1 <0>        -0.1090
     22 C13         0.2529    8.3044    0.2362 C.ar      1 <0>        -0.1407
     23 C14        -0.7528    7.6531    0.9262 C.ar      1 <0>        -0.0572
     24 C15        -0.7932    6.2726    0.9513 C.ar      1 <0>        -0.1546
     25 C16        -1.8095    8.4503    1.6466 C.3       1 <0>        -0.1743
     26 H1          0.9737   -6.8830   -1.1902 H         1 <0>         0.0867
     27 H2          0.7502   -6.9792    0.5731 H         1 <0>         0.0867
     28 H3         -0.5439   -7.5272   -0.5193 H         1 <0>         0.0868
     29 H4         -1.0682   -5.2991    0.4343 H         1 <0>         0.0862
     30 H5         -0.8447   -5.2029   -1.3290 H         1 <0>         0.0863
     31 H6          4.3401   -1.0041    0.4575 H         1 <0>         0.2106
     32 H7          4.4719    1.3941    0.2896 H         1 <0>         0.2307
     33 H8          3.6800    2.7477    0.8925 H         1 <0>         0.2900
     34 H9         -0.7022    3.6775    0.3456 H         1 <0>         0.2561
     35 H10         1.9521    5.6285   -0.9183 H         1 <0>         0.1553
     36 H11         2.0086    8.0882   -0.9647 H         1 <0>         0.1335
     37 H12         0.2795    9.3838    0.2141 H         1 <0>         0.1313
     38 H13        -1.5817    5.7645    1.4865 H         1 <0>         0.1342
     39 H14        -2.6445    8.6398    0.9722 H         1 <0>         0.0877
     40 H15        -2.1616    7.8885    2.5118 H         1 <0>         0.0825
     41 H16        -1.3867    9.3991    1.9770 H         1 <0>         0.0836
@<TRIPOS>BOND
     1    1    2 1
     2    1   26 1
     3    1   27 1
     4    1   28 1
     5    2    3 1
     6    2   29 1
     7    2   30 1
     8    3    4 1
     9    4    5 2
    10    4    6 1
    11    6   14 1
    12    6    7 2
    13    7   12 1
    14    7    8 1
    15    8    9 2
    16    9   10 1
    17   10   11 2
    18   10   16 1
    19   11   12 1
    20   11   15 1
    21   12   13 1
    22   13   14 2
    23   13   31 1
    24   15   32 1
    25   15   33 1
    26   16   17 2
    27   16   18 am
    28   18   19 1
    29   18   34 1
    30   19   24 ar
    31   19   20 ar
    32   20   21 ar
    33   20   35 1
    34   21   22 ar
    35   21   36 1
    36   22   23 ar
    37   22   37 1
    38   23   24 ar
    39   23   25 1
    40   24   38 1
    41   25   39 1
    42   25   40 1
    43   25   41 1
@<TRIPOS>MOLECULE
ZINC01414222
   42    44     0     0     0
SMALL
USER_CHARGES

@<TRIPOS>ATOM
      1 C1          0.2514   -6.7953   -0.3785 C.3       1 <0>        -0.2157
      2 C2         -0.3460   -5.3868   -0.3774 C.3       1 <0>        -0.0053
      3 O1          0.6968   -4.4273   -0.1928 O.3       1 <0>        -0.2756
      4 C3          0.3357   -3.1276   -0.1677 C.2       1 <0>         0.3623
      5 O2         -0.8335   -2.8184   -0.2990 O.2       1 <0>        -0.2626
      6 C4          1.3514   -2.0889    0.0178 C.2       1 <0>        -0.1033
      7 C5          1.1286   -0.7107    0.0647 C.2       1 <0>         0.0648
      8 N1          0.0349    0.0524   -0.0330 N.2       1 <0>        -0.0082
      9 N2          0.0980    1.3347    0.0447 N.2       1 <0>         0.0878
     10 C6          1.2634    1.9706    0.2276 C.2       1 <0>        -0.2169
     11 C7          2.4463    1.2301    0.3383 C.2       1 <0>         0.2470
     12 N3          2.3632   -0.1335    0.2532 N.pl3     1 <0>        -0.0895
     13 C8          3.2779   -1.1376    0.3146 C.cat     1 <0>        -0.0524
     14 N4          3.6490    1.8506    0.5248 N.pl3     1 <0>        -0.3184
     15 C9          1.2994    3.4382    0.3120 C.2       1 <0>         0.3739
     16 O3          2.3673    4.0179    0.3744 O.2       1 <0>        -0.3726
     17 N5          0.1495    4.1411    0.3201 N.am      1 <0>        -0.2673
     18 C10         0.1842    5.5389    0.2919 C.ar      1 <0>         0.0314
     19 C11         1.1932    6.1963   -0.4005 C.ar      1 <0>        -0.1296
     20 C12         1.2246    7.5765   -0.4263 C.ar      1 <0>        -0.1043
     21 C13         0.2529    8.3044    0.2362 C.ar      1 <0>        -0.1214
     22 C14        -0.7528    7.6531    0.9262 C.ar      1 <0>        -0.0500
     23 C15        -0.7932    6.2726    0.9513 C.ar      1 <0>        -0.1426
     24 C16        -1.8095    8.4503    1.6466 C.3       1 <0>        -0.1776
     25 H1          0.9737   -6.8830   -1.1902 H         1 <0>         0.0894
     26 H2          0.7502   -6.9792    0.5731 H         1 <0>         0.0894
     27 H3         -0.5439   -7.5272   -0.5193 H         1 <0>         0.1144
     28 H4         -1.0682   -5.2991    0.4343 H         1 <0>         0.1036
     29 H5         -0.8447   -5.2029   -1.3290 H         1 <0>         0.1037
     30 H6          4.3401   -1.0041    0.4575 H         1 <0>         0.2474
     31 H7          4.4719    1.3941    0.2896 H         1 <0>         0.2404
     32 H8          3.6800    2.7477    0.8925 H         1 <0>         0.3139
     33 H9         -0.7022    3.6775    0.3456 H         1 <0>         0.2561
     34 H10         1.9521    5.6285   -0.9183 H         1 <0>         0.1483
     35 H11         2.0086    8.0882   -0.9647 H         1 <0>         0.1428
     36 H12         0.2795    9.3838    0.2141 H         1 <0>         0.1436
     37 H13        -1.5817    5.7645    1.4865 H         1 <0>         0.1367
     38 H14        -2.6445    8.6398    0.9722 H         1 <0>         0.0958
     39 H15        -2.1616    7.8885    2.5118 H         1 <0>         0.0859
     40 H16        -1.3867    9.3991    1.9770 H         1 <0>         0.0924
     41 N6          2.6786   -2.2861    0.1757 N.pl3     1 <0>         0.0018
     42 H17         3.1439   -3.2013    0.1849 H         1 <0>         0.3407
@<TRIPOS>BOND
     1    1    2 1
     2    1   25 1
     3    1   26 1
     4    1   27 1
     5    2    3 1
     6    2   28 1
     7    2   29 1
     8    3    4 1
     9    4    5 2
    10    4    6 1
    11    6    7 2
    12    6   41 1
    13    7   12 1
    14    7    8 1
    15    8    9 2
    16    9   10 1
    17   10   11 2
    18   10   15 1
    19   11   12 1
    20   11   14 1
    21   12   13 1
    22   13   30 1
    23   13   41 2
    24   14   31 1
    25   14   32 1
    26   15   16 2
    27   15   17 am
    28   17   18 1
    29   17   33 1
    30   18   23 ar
    31   18   19 ar
    32   19   20 ar
    33   19   34 1
    34   20   21 ar
    35   20   35 1
    36   21   22 ar
    37   21   36 1
    38   22   23 ar
    39   22   24 1
    40   23   37 1
    41   24   38 1
    42   24   39 1
    43   24   40 1
    44   41   42 1
@<TRIPOS>MOLECULE
ZINC01414231
   41    43     0     0     0
SMALL
USER_CHARGES

@<TRIPOS>ATOM
      1 C1         -0.8918    5.0897   12.0708 C.3       1 <0>        -0.2135
      2 C2         -0.8199    4.9511   10.5488 C.3       1 <0>        -0.0066
      3 O1         -0.6838    3.5715   10.2021 O.3       1 <0>        -0.2456
      4 C3         -0.6061    3.2750    8.8882 C.2       1 <0>         0.3917
      5 O2         -0.6527    4.1648    8.0600 O.2       1 <0>        -0.3370
      6 C4         -0.4655    1.8819    8.4590 C.2       1 <0>        -0.1216
      7 C5         -0.3734    1.4254    7.1420 C.2       1 <0>        -0.0042
      8 N1         -0.3812    2.0331    5.9509 N.2       1 <0>        -0.0199
      9 N2         -0.2791    1.3688    4.8542 N.2       1 <0>         0.0191
     10 C6         -0.1599    0.0340    4.8502 C.2       1 <0>        -0.2751
     11 C7         -0.1504   -0.6639    6.0637 C.2       1 <0>         0.2456
     12 N3         -0.2545    0.0572    7.2226 N.pl3     1 <0>        -0.1112
     13 C8         -0.2761   -0.2774    8.5402 C.2       1 <0>        -0.1248
     14 N4         -0.4002    0.7988    9.2624 N.2       1 <0>        -0.0612
     15 N5         -0.0354   -2.0249    6.0908 N.pl3     1 <0>        -0.3576
     16 C9         -0.0459   -0.6941    3.5778 C.2       1 <0>         0.3922
     17 O3         -0.0424   -1.9108    3.5714 O.2       1 <0>        -0.3959
     18 N6          0.0548   -0.0138    2.4187 N.am      1 <0>        -0.2925
     19 C10         0.0728   -0.7036    1.2024 C.ar      1 <0>         0.0526
     20 C11         0.6844   -1.9479    1.1168 C.ar      1 <0>        -0.1237
     21 C12         0.7000   -2.6266   -0.0857 C.ar      1 <0>        -0.1200
     22 C13         0.1072   -2.0690   -1.2040 C.ar      1 <0>        -0.1356
     23 C14        -0.5066   -0.8328   -1.1210 C.ar      1 <0>        -0.1132
     24 C15        -0.5211   -0.1463    0.0775 C.ar      1 <0>        -0.0968
     25 C16        -1.1862    1.2031    0.1659 C.3       1 <0>        -0.1790
     26 H1          0.0203    4.6916   12.5154 H         1 <0>         0.0868
     27 H2         -0.9956    6.1420   12.3353 H         1 <0>         0.0869
     28 H3         -1.7513    4.5342   12.4461 H         1 <0>         0.0868
     29 H4          0.0396    5.5066   10.1736 H         1 <0>         0.0862
     30 H5         -1.7321    5.3492   10.1042 H         1 <0>         0.0863
     31 H6         -0.2013   -1.2824    8.9285 H         1 <0>         0.2110
     32 H7          0.3881   -2.4906    5.3528 H         1 <0>         0.2872
     33 H8         -0.3773   -2.5255    6.8481 H         1 <0>         0.2318
     34 H9          0.1147    0.9543    2.4282 H         1 <0>         0.2569
     35 H10         1.1468   -2.3842    1.9898 H         1 <0>         0.1575
     36 H11         1.1753   -3.5940   -0.1529 H         1 <0>         0.1325
     37 H12         0.1205   -2.6020   -2.1432 H         1 <0>         0.1302
     38 H13        -0.9718   -0.4018   -1.9952 H         1 <0>         0.1337
     39 H14        -0.4576    1.9825   -0.0571 H         1 <0>         0.0864
     40 H15        -2.0036    1.2531   -0.5535 H         1 <0>         0.0882
     41 H16        -1.5784    1.3496    1.1723 H         1 <0>         0.0854
@<TRIPOS>BOND
     1    1    2 1
     2    1   26 1
     3    1   27 1
     4    1   28 1
     5    2    3 1
     6    2   29 1
     7    2   30 1
     8    3    4 1
     9    4    5 2
    10    4    6 1
    11    6   14 1
    12    6    7 2
    13    7   12 1
    14    7    8 1
    15    8    9 2
    16    9   10 1
    17   10   11 2
    18   10   16 1
    19   11   12 1
    20   11   15 1
    21   12   13 1
    22   13   14 2
    23   13   31 1
    24   15   32 1
    25   15   33 1
    26   16   17 2
    27   16   18 am
    28   18   19 1
    29   18   34 1
    30   19   24 ar
    31   19   20 ar
    32   20   21 ar
    33   20   35 1
    34   21   22 ar
    35   21   36 1
    36   22   23 ar
    37   22   37 1
    38   23   24 ar
    39   23   38 1
    40   24   25 1
    41   25   39 1
    42   25   40 1
    43   25   41 1
@<TRIPOS>MOLECULE
ZINC01414231
   42    44     0     0     0
SMALL
USER_CHARGES

@<TRIPOS>ATOM
      1 C1         -0.8918    5.0897   12.0708 C.3       1 <0>        -0.2157
      2 C2         -0.8199    4.9511   10.5488 C.3       1 <0>        -0.0054
      3 O1         -0.6838    3.5715   10.2021 O.3       1 <0>        -0.2755
      4 C3         -0.6061    3.2750    8.8882 C.2       1 <0>         0.3623
      5 O2         -0.6527    4.1648    8.0600 O.2       1 <0>        -0.2627
      6 C4         -0.4655    1.8819    8.4590 C.2       1 <0>        -0.1022
      7 C5         -0.3734    1.4254    7.1420 C.2       1 <0>         0.0630
      8 N1         -0.3812    2.0331    5.9509 N.2       1 <0>        -0.0061
      9 N2         -0.2791    1.3688    4.8542 N.2       1 <0>         0.0855
     10 C6         -0.1599    0.0340    4.8502 C.2       1 <0>        -0.2122
     11 C7         -0.1504   -0.6639    6.0637 C.2       1 <0>         0.2454
     12 N3         -0.2545    0.0572    7.2226 N.pl3     1 <0>        -0.0881
     13 C8         -0.2761   -0.2774    8.5402 C.cat     1 <0>        -0.0520
     14 N4         -0.0354   -2.0249    6.0908 N.pl3     1 <0>        -0.3209
     15 C9         -0.0459   -0.6941    3.5778 C.2       1 <0>         0.3724
     16 O3         -0.0424   -1.9108    3.5714 O.2       1 <0>        -0.3732
     17 N5          0.0548   -0.0138    2.4187 N.am      1 <0>        -0.2654
     18 C10         0.0728   -0.7036    1.2024 C.ar      1 <0>         0.0239
     19 C11         0.6844   -1.9479    1.1168 C.ar      1 <0>        -0.1186
     20 C12         0.7000   -2.6266   -0.0857 C.ar      1 <0>        -0.1158
     21 C13         0.1072   -2.0690   -1.2040 C.ar      1 <0>        -0.1146
     22 C14        -0.5066   -0.8328   -1.1210 C.ar      1 <0>        -0.1080
     23 C15        -0.5211   -0.1463    0.0775 C.ar      1 <0>        -0.0835
     24 C16        -1.1862    1.2031    0.1659 C.3       1 <0>        -0.1811
     25 H1          0.0203    4.6916   12.5154 H         1 <0>         0.0894
     26 H2         -0.9956    6.1420   12.3353 H         1 <0>         0.1145
     27 H3         -1.7513    4.5342   12.4461 H         1 <0>         0.0894
     28 H4          0.0396    5.5066   10.1736 H         1 <0>         0.1036
     29 H5         -1.7321    5.3492   10.1042 H         1 <0>         0.1037
     30 H6         -0.2013   -1.2824    8.9285 H         1 <0>         0.2477
     31 H7          0.3881   -2.4906    5.3528 H         1 <0>         0.3113
     32 H8         -0.3773   -2.5255    6.8481 H         1 <0>         0.2418
     33 H9          0.1147    0.9543    2.4282 H         1 <0>         0.2573
     34 H10         1.1468   -2.3842    1.9898 H         1 <0>         0.1507
     35 H11         1.1753   -3.5940   -0.1529 H         1 <0>         0.1422
     36 H12         0.1205   -2.6020   -2.1432 H         1 <0>         0.1431
     37 H13        -0.9718   -0.4018   -1.9952 H         1 <0>         0.1453
     38 H14        -0.4576    1.9825   -0.0571 H         1 <0>         0.0927
     39 H15        -2.0036    1.2531   -0.5535 H         1 <0>         0.0999
     40 H16        -1.5784    1.3496    1.1723 H         1 <0>         0.0739
     41 N6         -0.4003    0.7988    9.2640 N.pl3     1 <0>         0.0013
     42 H17        -0.4421    0.8205   10.2897 H         1 <0>         0.3407
@<TRIPOS>BOND
     1    1    2 1
     2    1   25 1
     3    1   26 1
     4    1   27 1
     5    2    3 1
     6    2   28 1
     7    2   29 1
     8    3    4 1
     9    4    5 2
    10    4    6 1
    11    6    7 2
    12    6   41 1
    13    7   12 1
    14    7    8 1
    15    8    9 2
    16    9   10 1
    17   10   11 2
    18   10   15 1
    19   11   12 1
    20   11   14 1
    21   12   13 1
    22   13   30 1
    23   13   41 2
    24   14   31 1
    25   14   32 1
    26   15   16 2
    27   15   17 am
    28   17   18 1
    29   17   33 1
    30   18   23 ar
    31   18   19 ar
    32   19   20 ar
    33   19   34 1
    34   20   21 ar
    35   20   35 1
    36   21   22 ar
    37   21   36 1
    38   22   23 ar
    39   22   37 1
    40   23   24 1
    41   24   38 1
    42   24   39 1
    43   24   40 1
    44   41   42 1
@<TRIPOS>MOLECULE
ZINC01414232
   38    40     0     0     0
SMALL
USER_CHARGES

@<TRIPOS>ATOM
      1 C1          1.0084   -6.9988   -0.0022 C.3       1 <0>        -0.2135
      2 C2          0.2723   -5.6576    0.0064 C.3       1 <0>        -0.0065
      3 O1          1.2241   -4.5918    0.0007 O.3       1 <0>        -0.2459
      4 C3          0.7355   -3.3342    0.0071 C.2       1 <0>         0.3919
      5 O2         -0.4667   -3.1488    0.0172 O.2       1 <0>        -0.3368
      6 C4          1.6525   -2.1924    0.0019 C.2       1 <0>        -0.1236
      7 C5          1.2949   -0.8420    0.0073 C.2       1 <0>         0.0019
      8 N1          0.1240   -0.1962    0.0188 N.2       1 <0>        -0.0282
      9 N2          0.0624    1.0885    0.0220 N.2       1 <0>         0.0262
     10 C6          1.1688    1.8447    0.0141 C.2       1 <0>        -0.2923
     11 C7          2.4269    1.2308    0.0011 C.2       1 <0>         0.2531
     12 N3          2.4764   -0.1371   -0.0014 N.pl3     1 <0>        -0.1160
     13 C8          3.4913   -1.0418   -0.0116 C.2       1 <0>        -0.1265
     14 N4          3.0014   -2.2481   -0.0096 N.2       1 <0>        -0.0602
     15 N5          3.5721    1.9755   -0.0067 N.pl3     1 <0>        -0.3510
     16 C9          1.0619    3.3112    0.0180 C.2       1 <0>         0.3992
     17 O3          2.0630    3.9944   -0.0883 O.2       1 <0>        -0.4034
     18 N6         -0.1451    3.8986    0.1394 N.am      1 <0>        -0.2920
     19 C10        -0.2581    5.2895    0.0490 C.ar      1 <0>         0.0523
     20 C11         0.7480    6.1037    0.5529 C.ar      1 <0>        -0.1270
     21 C12         0.6360    7.4769    0.4569 C.ar      1 <0>        -0.1144
     22 C13        -0.4816    8.0416   -0.1299 C.ar      1 <0>        -0.1388
     23 C14        -1.4878    7.2339   -0.6275 C.ar      1 <0>        -0.1119
     24 C15        -1.3793    5.8599   -0.5398 C.ar      1 <0>        -0.1508
     25 H1          1.6265   -7.0684   -0.8973 H         1 <0>         0.0868
     26 H2          1.6409   -7.0718    0.8826 H         1 <0>         0.0866
     27 H3          0.2824   -7.8118    0.0022 H         1 <0>         0.0868
     28 H4         -0.3458   -5.5880    0.9015 H         1 <0>         0.0861
     29 H5         -0.3602   -5.5846   -0.8784 H         1 <0>         0.0863
     30 H6          4.5432   -0.7972   -0.0197 H         1 <0>         0.2095
     31 H7          4.4353    1.5384    0.0624 H         1 <0>         0.2274
     32 H8          3.5221    2.9413   -0.0813 H         1 <0>         0.2968
     33 H9         -0.9354    3.3565    0.2894 H         1 <0>         0.2574
     34 H10         1.6189    5.6634    1.0156 H         1 <0>         0.1580
     35 H11         1.4201    8.1105    0.8445 H         1 <0>         0.1334
     36 H12        -0.5687    9.1158   -0.2001 H         1 <0>         0.1308
     37 H13        -2.3592    7.6781   -1.0855 H         1 <0>         0.1336
     38 H14        -2.1656    5.2297   -0.9282 H         1 <0>         0.1351
@<TRIPOS>BOND
     1    1    2 1
     2    1   25 1
     3    1   26 1
     4    1   27 1
     5    2    3 1
     6    2   28 1
     7    2   29 1
     8    3    4 1
     9    4    5 2
    10    4    6 1
    11    6   14 1
    12    6    7 2
    13    7   12 1
    14    7    8 1
    15    8    9 2
    16    9   10 1
    17   10   11 2
    18   10   16 1
    19   11   12 1
    20   11   15 1
    21   12   13 1
    22   13   14 2
    23   13   30 1
    24   15   31 1
    25   15   32 1
    26   16   17 2
    27   16   18 am
    28   18   19 1
    29   18   33 1
    30   19   24 ar
    31   19   20 ar
    32   20   21 ar
    33   20   34 1
    34   21   22 ar
    35   21   35 1
    36   22   23 ar
    37   22   36 1
    38   23   24 ar
    39   23   37 1
    40   24   38 1
@<TRIPOS>MOLECULE
ZINC01414232
   39    41     0     0     0
SMALL
USER_CHARGES

@<TRIPOS>ATOM
      1 C1          1.0084   -6.9988   -0.0022 C.3       1 <0>        -0.2157
      2 C2          0.2723   -5.6576    0.0064 C.3       1 <0>        -0.0053
      3 O1          1.2241   -4.5918    0.0007 O.3       1 <0>        -0.2759
      4 C3          0.7355   -3.3342    0.0071 C.2       1 <0>         0.3628
      5 O2         -0.4667   -3.1488    0.0172 O.2       1 <0>        -0.2628
      6 C4          1.6525   -2.1924    0.0019 C.2       1 <0>        -0.1064
      7 C5          1.2949   -0.8420    0.0073 C.2       1 <0>         0.0707
      8 N1          0.1240   -0.1962    0.0188 N.2       1 <0>        -0.0154
      9 N2          0.0624    1.0885    0.0220 N.2       1 <0>         0.0918
     10 C6          1.1688    1.8447    0.0141 C.2       1 <0>        -0.2300
     11 C7          2.4269    1.2308    0.0011 C.2       1 <0>         0.2531
     12 N3          2.4764   -0.1371   -0.0014 N.pl3     1 <0>        -0.0936
     13 C8          3.4913   -1.0418   -0.0116 C.cat     1 <0>        -0.0533
     14 N4          3.5721    1.9755   -0.0067 N.pl3     1 <0>        -0.3113
     15 C9          1.0619    3.3112    0.0180 C.2       1 <0>         0.3799
     16 O3          2.0630    3.9944   -0.0883 O.2       1 <0>        -0.3800
     17 N5         -0.1451    3.8986    0.1394 N.am      1 <0>        -0.2647
     18 C10        -0.2581    5.2895    0.0490 C.ar      1 <0>         0.0232
     19 C11         0.7480    6.1037    0.5529 C.ar      1 <0>        -0.1218
     20 C12         0.6360    7.4769    0.4569 C.ar      1 <0>        -0.1100
     21 C13        -0.4816    8.0416   -0.1299 C.ar      1 <0>        -0.1178
     22 C14        -1.4878    7.2339   -0.6275 C.ar      1 <0>        -0.1057
     23 C15        -1.3793    5.8599   -0.5398 C.ar      1 <0>        -0.1377
     24 H1          1.6265   -7.0684   -0.8973 H         1 <0>         0.0894
     25 H2          1.6409   -7.0718    0.8826 H         1 <0>         0.0893
     26 H3          0.2824   -7.8118    0.0022 H         1 <0>         0.1143
     27 H4         -0.3458   -5.5880    0.9015 H         1 <0>         0.1035
     28 H5         -0.3602   -5.5846   -0.8784 H         1 <0>         0.1036
     29 H6          4.5432   -0.7972   -0.0197 H         1 <0>         0.2463
     30 H7          4.4353    1.5384    0.0624 H         1 <0>         0.2362
     31 H8          3.5221    2.9413   -0.0813 H         1 <0>         0.3201
     32 H9         -0.9354    3.3565    0.2894 H         1 <0>         0.2578
     33 H10         1.6189    5.6634    1.0156 H         1 <0>         0.1514
     34 H11         1.4201    8.1105    0.8445 H         1 <0>         0.1431
     35 H12        -0.5687    9.1158   -0.2001 H         1 <0>         0.1438
     36 H13        -2.3592    7.6781   -1.0855 H         1 <0>         0.1457
     37 H14        -2.1656    5.2297   -0.9282 H         1 <0>         0.1374
     38 N6          3.0023   -2.2495   -0.0096 N.pl3     1 <0>         0.0033
     39 H15         3.5580   -3.1129   -0.0158 H         1 <0>         0.3407
@<TRIPOS>BOND
     1    1    2 1
     2    1   24 1
     3    1   25 1
     4    1   26 1
     5    2    3 1
     6    2   27 1
     7    2   28 1
     8    3    4 1
     9    4    5 2
    10    4    6 1
    11    6    7 2
    12    6   38 1
    13    7   12 1
    14    7    8 1
    15    8    9 2
    16    9   10 1
    17   10   11 2
    18   10   15 1
    19   11   12 1
    20   11   14 1
    21   12   13 1
    22   13   29 1
    23   13   38 2
    24   14   30 1
    25   14   31 1
    26   15   16 2
    27   15   17 am
    28   17   18 1
    29   17   32 1
    30   18   23 ar
    31   18   19 ar
    32   19   20 ar
    33   19   33 1
    34   20   21 ar
    35   20   34 1
    36   21   22 ar
    37   21   35 1
    38   22   23 ar
    39   22   36 1
    40   23   37 1
    41   38   39 1
@<TRIPOS>MOLECULE
ZINC01414899
   42    44     0     0     0
SMALL
USER_CHARGES

@<TRIPOS>ATOM
      1 C1         -1.3331    2.7870    1.1074 C.3       1 <0>        -0.0626
      2 O1         -0.7199    1.4987    1.1865 O.3       1 <0>        -0.2108
      3 C2         -0.1776    1.1454    2.3827 C.ar      1 <0>         0.0727
      4 C3         -0.2309    2.0245    3.4544 C.ar      1 <0>        -0.1925
      5 C4          0.3151    1.6649    4.6708 C.ar      1 <0>        -0.1360
      6 C5          0.9269    0.4263    4.8180 C.ar      1 <0>         0.0433
      7 C6          0.9843   -0.4512    3.7424 C.ar      1 <0>        -0.1192
      8 C7          0.4334   -0.0914    2.5284 C.ar      1 <0>        -0.1261
      9 N1          1.4848    0.0632    6.0477 N.pl3     1 <0>        -0.2895
     10 C8          2.5782   -0.8169    6.0901 C.2       1 <0>         0.0199
     11 C9          3.1350   -1.3210    7.1961 C.2       1 <0>         0.0160
     12 N2          4.1838   -2.1470    6.7944 N.am      1 <0>        -0.1499
     13 C10         4.2320   -2.1070    5.4474 C.2       1 <0>         0.3898
     14 O2          5.0257   -2.7039    4.7435 O.2       1 <0>        -0.3035
     15 O3          3.2534   -1.2963    5.0170 O.3       1 <0>        -0.1192
     16 N3          5.0342   -2.8777    7.6345 N.pl3     1 <0>        -0.2385
     17 C11         6.3445   -2.4394    7.8562 C.ar      1 <0>         0.0768
     18 C12         6.8042   -1.2834    7.2393 C.ar      1 <0>        -0.1387
     19 C13         8.0957   -0.8484    7.4633 C.ar      1 <0>        -0.1765
     20 C14         8.9372   -1.5722    8.2951 C.ar      1 <0>         0.0560
     21 C15         8.4807   -2.7300    8.9072 C.ar      1 <0>        -0.1158
     22 C16         7.1876   -3.1633    8.6889 C.ar      1 <0>        -0.1532
     23 O4         10.2105   -1.1459    8.5111 O.3       1 <0>        -0.2144
     24 C17        10.6140    0.0543    7.8487 C.3       1 <0>        -0.0619
     25 O5          2.7472   -1.0756    8.4783 O.3       1 <0>        -0.2329
     26 H1         -0.5939    3.5558    1.3324 H         1 <0>         0.0675
     27 H2         -2.1491    2.8458    1.8277 H         1 <0>         0.0661
     28 H3         -1.7242    2.9421    0.1019 H         1 <0>         0.1089
     29 H4         -0.7029    2.9889    3.3386 H         1 <0>         0.1377
     30 H5          0.2699    2.3477    5.5063 H         1 <0>         0.1292
     31 H6          1.4593   -1.4144    3.8558 H         1 <0>         0.1560
     32 H7          0.4779   -0.7733    1.6921 H         1 <0>         0.1501
     33 H8          1.1166    0.4193    6.8714 H         1 <0>         0.2481
     34 H9          4.7146   -3.6874    8.0624 H         1 <0>         0.2670
     35 H10         6.1505   -0.7222    6.5881 H         1 <0>         0.1375
     36 H11         8.4519    0.0533    6.9874 H         1 <0>         0.1378
     37 H12         9.1365   -3.2928    9.5550 H         1 <0>         0.1459
     38 H13         6.8322   -4.0648    9.1658 H         1 <0>         0.1341
     39 H14        11.6486    0.2811    8.1061 H         1 <0>         0.1062
     40 H15        10.5289   -0.0796    6.7704 H         1 <0>         0.0685
     41 H16         9.9723    0.8769    8.1645 H         1 <0>         0.0653
     42 H17         1.9933   -0.4746    8.5530 H         1 <0>         0.2409
@<TRIPOS>BOND
     1    1    2 1
     2    1   26 1
     3    1   27 1
     4    1   28 1
     5    2    3 1
     6    3    8 ar
     7    3    4 ar
     8    4    5 ar
     9    4   29 1
    10    5    6 ar
    11    5   30 1
    12    6    7 ar
    13    6    9 1
    14    7    8 ar
    15    7   31 1
    16    8   32 1
    17    9   10 1
    18    9   33 1
    19   10   15 1
    20   10   11 2
    21   11   12 1
    22   11   25 1
    23   12   13 am
    24   12   16 1
    25   13   14 2
    26   13   15 1
    27   16   17 1
    28   16   34 1
    29   17   22 ar
    30   17   18 ar
    31   18   19 ar
    32   18   35 1
    33   19   20 ar
    34   19   36 1
    35   20   21 ar
    36   20   23 1
    37   21   22 ar
    38   21   37 1
    39   22   38 1
    40   23   24 1
    41   24   39 1
    42   24   40 1
    43   24   41 1
    44   25   42 1
@<TRIPOS>MOLECULE
ZINC01419240
   41    43     0     0     0
SMALL
USER_CHARGES

@<TRIPOS>ATOM
      1 C1          1.5322   -6.9703   -0.0909 C.3       1 <0>        -0.2157
      2 C2          2.2340   -5.6108   -0.0856 C.3       1 <0>        -0.0007
      3 O1          1.2396   -4.5528   -0.0677 O.3       1 <0>        -0.2779
      4 C3          1.6958   -3.2838   -0.0610 C.2       1 <0>         0.3816
      5 O2          2.8926   -3.0678   -0.0699 O.2       1 <0>        -0.3430
      6 C4          0.7489   -2.1643   -0.0431 C.2       1 <0>        -0.2630
      7 C5         -0.6566   -2.2556   -0.0318 C.2       1 <0>        -0.0264
      8 N1         -1.1551   -1.0478   -0.0174 N.2       1 <0>        -0.1160
      9 N2         -0.1148   -0.1158   -0.0184 N.pl3     1 <0>        -0.1130
     10 C6          1.0709   -0.7979   -0.0343 C.2       1 <0>         0.0839
     11 N3          2.2320   -0.1346   -0.0383 N.2       1 <0>        -0.0636
     12 N4          2.2761    1.1504   -0.0275 N.2       1 <0>         0.0505
     13 C7          1.1587    1.8877   -0.0117 C.2       1 <0>        -0.3094
     14 C8         -0.0880    1.2514   -0.0067 C.2       1 <0>         0.2968
     15 N5         -1.2475    1.9771    0.0037 N.pl3     1 <0>        -0.3368
     16 C9          1.2407    3.3569   -0.0001 C.2       1 <0>         0.3996
     17 O3          0.2281    4.0217    0.1122 O.2       1 <0>        -0.4019
     18 N6          2.4376    3.9660   -0.1138 N.am      1 <0>        -0.2918
     19 C10         2.5267    5.3577   -0.0087 C.ar      1 <0>         0.0462
     20 C11         1.5073    6.1598   -0.5051 C.ar      1 <0>        -0.1226
     21 C12         1.5958    7.5337   -0.3945 C.ar      1 <0>        -0.1147
     22 C13         2.7033    8.1111    0.1991 C.ar      1 <0>        -0.0850
     23 C14         3.7224    7.3155    0.6897 C.ar      1 <0>        -0.1125
     24 C15         3.6374    5.9409    0.5874 C.ar      1 <0>        -0.1470
     25 C16         2.7995    9.6108    0.3120 C.3       1 <0>        -0.1735
     26 H1          0.9169   -7.0651    0.8038 H         1 <0>         0.0846
     27 H2          0.9011   -7.0499   -0.9760 H         1 <0>         0.0845
     28 H3          2.2787   -7.7645   -0.1043 H         1 <0>         0.0893
     29 H4          2.8493   -5.5160   -0.9803 H         1 <0>         0.0900
     30 H5          2.8652   -5.5311    0.7995 H         1 <0>         0.0902
     31 H6         -1.2278   -3.1722   -0.0346 H         1 <0>         0.2122
     32 H7         -2.1028    1.5260   -0.0736 H         1 <0>         0.2448
     33 H8         -1.2145    2.9428    0.0884 H         1 <0>         0.2927
     34 H9          3.2371    3.4391   -0.2686 H         1 <0>         0.2563
     35 H10         0.6445    5.7096   -0.9734 H         1 <0>         0.1585
     36 H11         0.8013    8.1578   -0.7760 H         1 <0>         0.1343
     37 H12         4.5858    7.7696    1.1530 H         1 <0>         0.1341
     38 H13         4.4337    5.3200    0.9707 H         1 <0>         0.1348
     39 H14         3.2925   10.0110   -0.5740 H         1 <0>         0.0860
     40 H15         1.7984   10.0341    0.3931 H         1 <0>         0.0821
     41 H16         3.3774    9.8721    1.1985 H         1 <0>         0.0816
@<TRIPOS>BOND
     1    1    2 1
     2    1   26 1
     3    1   27 1
     4    1   28 1
     5    2    3 1
     6    2   29 1
     7    2   30 1
     8    3    4 1
     9    4    5 2
    10    4    6 1
    11    6   10 2
    12    6    7 1
    13    7    8 2
    14    7   31 1
    15    8    9 1
    16    9   14 1
    17    9   10 1
    18   10   11 1
    19   11   12 2
    20   12   13 1
    21   13   14 2
    22   13   16 1
    23   14   15 1
    24   15   32 1
    25   15   33 1
    26   16   17 2
    27   16   18 am
    28   18   19 1
    29   18   34 1
    30   19   24 ar
    31   19   20 ar
    32   20   21 ar
    33   20   35 1
    34   21   22 ar
    35   21   36 1
    36   22   23 ar
    37   22   25 1
    38   23   24 ar
    39   23   37 1
    40   24   38 1
    41   25   39 1
    42   25   40 1
    43   25   41 1
@<TRIPOS>MOLECULE
ZINC01420979
   39    41     0     0     0
SMALL
USER_CHARGES

@<TRIPOS>ATOM
      1 C1          0.1747    4.9392   -4.6232 C.3       1 <0>        -0.0594
      2 O1         -0.5365    4.9168   -3.3840 O.3       1 <0>        -0.2587
      3 C2         -0.1379    5.7885   -2.4323 C.2       1 <0>         0.3791
      4 O2          0.7899    6.5470   -2.6512 O.2       1 <0>        -0.3572
      5 C3         -0.7918    5.8202   -1.1924 C.2       1 <0>        -0.3848
      6 C4         -1.9862    6.4532   -1.0888 C.2       1 <0>         0.2824
      7 O3         -2.6427    6.5052    0.0814 O.3       1 <0>        -0.1104
      8 C5         -1.9744    6.2948    1.2421 C.2       1 <0>        -0.0945
      9 C6         -2.5436    6.7590    2.4628 C.2       1 <0>         0.3013
     10 O4         -3.6177    7.3408    2.4774 O.2       1 <0>        -0.2968
     11 C7         -1.8218    6.5238    3.6599 C.2       1 <0>        -0.2838
     12 C8         -0.6419    5.8788    3.5855 C.2       1 <0>         0.0843
     13 O5         -0.1364    5.4571    2.4289 O.3       1 <0>        -0.0778
     14 C9         -0.7862    5.6580    1.2724 C.2       1 <0>         0.0374
     15 C10        -0.1588    5.1540   -0.0040 C.3       1 <0>         0.0823
     16 H1          0.9086    5.3749    0.0072 H         1 <0>         0.1265
     17 C11        -0.3584    3.6635   -0.1030 C.ar      1 <0>        -0.0838
     18 C12         0.7367    2.8220   -0.1630 C.ar      1 <0>        -0.1117
     19 C13         0.5536    1.4548   -0.2533 C.ar      1 <0>        -0.1290
     20 C14        -0.7246    0.9292   -0.2841 C.ar      1 <0>        -0.1222
     21 C15        -1.8196    1.7711   -0.2300 C.ar      1 <0>        -0.1249
     22 C16        -1.6365    3.1379   -0.1343 C.ar      1 <0>        -0.1031
     23 C17         0.1311    5.6253    4.8540 C.3       1 <0>         0.0472
     24 O6         -0.2593    4.3665    5.4063 O.3       1 <0>        -0.3398
     25 N1         -2.5331    7.0479   -2.1944 N.pl3     1 <0>        -0.3795
     26 H2          0.0860    5.9271   -5.0752 H         1 <0>         0.0718
     27 H3          1.2260    4.7152   -4.4429 H         1 <0>         0.0815
     28 H4         -0.2455    4.1924   -5.2969 H         1 <0>         0.1030
     29 H5         -2.2099    6.8552    4.6118 H         1 <0>         0.1779
     30 H6          1.7352    3.2327   -0.1389 H         1 <0>         0.1301
     31 H7          1.4091    0.7973   -0.3002 H         1 <0>         0.1291
     32 H8         -0.8676   -0.1389   -0.3550 H         1 <0>         0.1284
     33 H9         -2.8182    1.3607   -0.2585 H         1 <0>         0.1312
     34 H10        -2.4921    3.7954   -0.0878 H         1 <0>         0.1356
     35 H11         1.1982    5.6095    4.6322 H         1 <0>         0.0837
     36 H12        -0.0790    6.4180    5.5721 H         1 <0>         0.0906
     37 H13         0.1992    4.1375    6.2263 H         1 <0>         0.2239
     38 H14        -3.4248    7.4273   -2.1499 H         1 <0>         0.2359
     39 H15        -2.0289    7.0899   -3.0220 H         1 <0>         0.2541
@<TRIPOS>BOND
     1    1    2 1
     2    1   26 1
     3    1   27 1
     4    1   28 1
     5    2    3 1
     6    3    4 2
     7    3    5 1
     8    5   15 1
     9    5    6 2
    10    6    7 1
    11    6   25 1
    12    7    8 1
    13    8   14 2
    14    8    9 1
    15    9   10 2
    16    9   11 1
    17   11   12 2
    18   11   29 1
    19   12   13 1
    20   12   23 1
    21   13   14 1
    22   14   15 1
    23   15   16 1
    24   15   17 1
    25   17   22 ar
    26   17   18 ar
    27   18   19 ar
    28   18   30 1
    29   19   20 ar
    30   19   31 1
    31   20   21 ar
    32   20   32 1
    33   21   22 ar
    34   21   33 1
    35   22   34 1
    36   23   24 1
    37   23   35 1
    38   23   36 1
    39   24   37 1
    40   25   38 1
    41   25   39 1
@<TRIPOS>MOLECULE
ZINC01422528
   41    44     0     0     0
SMALL
USER_CHARGES

@<TRIPOS>ATOM
      1 C1         -5.4561   -1.7195    0.6157 C.3       1 <0>        -0.1671
      2 C2         -4.0138   -1.3092    0.4654 C.ar      1 <0>         0.0433
      3 C3         -3.0442   -2.2725    0.2339 C.ar      1 <0>        -0.1857
      4 C4         -1.7239   -1.9098    0.0949 C.ar      1 <0>         0.0284
      5 C5         -1.3755   -0.5422    0.1926 C.ar      1 <0>        -0.1494
      6 C6         -0.0330    0.0546    0.0758 C.2       1 <0>         0.0697
      7 C7          0.0333    1.4404    0.2136 C.2       1 <0>        -0.4105
      8 C8          1.2531    2.1244    0.1229 C.2       1 <0>         0.3599
      9 O1          1.3021    3.3369    0.2442 O.2       1 <0>        -0.3654
     10 N1          2.3756    1.4022   -0.1048 N.am      1 <0>        -0.1759
     11 C9          2.2789    0.0450   -0.2359 C.2       1 <0>         0.1961
     12 N2          1.1424   -0.5925   -0.1507 N.2       1 <0>        -0.2186
     13 C10         3.5110   -0.7328   -0.4838 C.ar      1 <0>        -0.0748
     14 C11         4.5665   -0.1648   -1.1994 C.ar      1 <0>        -0.0947
     15 C12         5.7156   -0.8946   -1.4231 C.ar      1 <0>        -0.1424
     16 C13         5.8192   -2.1903   -0.9491 C.ar      1 <0>        -0.1014
     17 C14         4.7747   -2.7611   -0.2437 C.ar      1 <0>        -0.1445
     18 C15         3.6221   -2.0406   -0.0084 C.ar      1 <0>        -0.0741
     19 N3          3.5890    2.0220   -0.2026 N.3       1 <0>        -0.2310
     20 S1         -1.6415    1.9463    0.4983 S.3       1 <0>         0.4790
     21 C16        -2.4316    0.3572    0.4293 C.ar      1 <0>        -0.1240
     22 N4         -3.6819   -0.0358    0.5553 N.ar      1 <0>        -0.1439
     23 C17        -0.6659   -2.9530   -0.1568 C.3       1 <0>         0.0194
     24 O2         -1.2744   -4.2449   -0.2117 O.3       1 <0>        -0.2955
     25 C18        -0.3533   -5.3116   -0.4475 C.3       1 <0>        -0.0584
     26 H1         -5.6679   -1.9250    1.6650 H         1 <0>         0.0983
     27 H2         -6.1014   -0.9137    0.2658 H         1 <0>         0.1034
     28 H3         -5.6421   -2.6165    0.0250 H         1 <0>         0.0900
     29 H4         -3.3263   -3.3125    0.1619 H         1 <0>         0.1652
     30 H5          4.4853    0.8451   -1.5735 H         1 <0>         0.1740
     31 H6          6.5347   -0.4548   -1.9728 H         1 <0>         0.1373
     32 H7          6.7196   -2.7587   -1.1303 H         1 <0>         0.1332
     33 H8          4.8619   -3.7731    0.1233 H         1 <0>         0.1357
     34 H9          2.8077   -2.4871    0.5427 H         1 <0>         0.1467
     35 H10         3.4864    3.0252   -0.1693 H         1 <0>         0.2036
     36 H11         4.2191    1.6989    0.5162 H         1 <0>         0.1680
     37 H12        -0.1687   -2.7451   -1.1043 H         1 <0>         0.0996
     38 H13         0.0662   -2.9302    0.6504 H         1 <0>         0.0929
     39 H14        -0.8930   -6.2582   -0.4751 H         1 <0>         0.1004
     40 H15         0.1504   -5.1526   -1.4010 H         1 <0>         0.0586
     41 H16         0.3853   -5.3378    0.3536 H         1 <0>         0.0550
@<TRIPOS>BOND
     1    1    2 1
     2    1   26 1
     3    1   27 1
     4    1   28 1
     5    2   22 ar
     6    2    3 ar
     7    3    4 ar
     8    3   29 1
     9    4    5 ar
    10    4   23 1
    11    5   21 ar
    12    5    6 1
    13    6   12 1
    14    6    7 2
    15    7    8 1
    16    7   20 1
    17    8    9 2
    18    8   10 am
    19   10   11 1
    20   10   19 1
    21   11   12 2
    22   11   13 1
    23   13   18 ar
    24   13   14 ar
    25   14   15 ar
    26   14   30 1
    27   15   16 ar
    28   15   31 1
    29   16   17 ar
    30   16   32 1
    31   17   18 ar
    32   17   33 1
    33   18   34 1
    34   19   35 1
    35   19   36 1
    36   20   21 1
    37   21   22 ar
    38   23   24 1
    39   23   37 1
    40   23   38 1
    41   24   25 1
    42   25   39 1
    43   25   40 1
    44   25   41 1
@<TRIPOS>MOLECULE
ZINC01426143
   40    41     0     0     0
SMALL
USER_CHARGES

@<TRIPOS>ATOM
      1 C1         -1.5209    9.2759    5.1690 C.3       1 <0>        -0.1745
      2 C2         -0.6295   10.1011    4.2771 C.ar      1 <0>        -0.1133
      3 C3         -0.3116   11.3989    4.6274 C.ar      1 <0>        -0.1093
      4 C4          0.5069   12.1564    3.8101 C.ar      1 <0>        -0.1439
      5 C5          1.0099   11.6178    2.6397 C.ar      1 <0>        -0.1137
      6 C6          0.6995   10.3197    2.2859 C.ar      1 <0>        -0.1322
      7 C7         -0.1265    9.5576    3.1024 C.ar      1 <0>         0.0635
      8 N1         -0.4461    8.2438    2.7450 N.am      1 <0>        -0.3163
      9 C8         -0.4049    7.8684    1.4513 C.2       1 <0>         0.3464
     10 O1         -0.1887    8.6938    0.5854 O.2       1 <0>        -0.3523
     11 C9         -0.6228    6.4529    1.0852 C.ar      1 <0>        -0.1218
     12 C10        -0.5809    6.0607   -0.2538 C.ar      1 <0>        -0.0666
     13 C11        -0.7846    4.7380   -0.5886 C.ar      1 <0>        -0.1266
     14 C12        -1.0295    3.8009    0.3995 C.ar      1 <0>        -0.0756
     15 C13        -1.0776    4.1839    1.7281 C.ar      1 <0>        -0.1146
     16 C14        -0.8709    5.5025    2.0770 C.ar      1 <0>        -0.1060
     17 C15        -1.2511    2.3578    0.0263 C.3       1 <0>         0.0320
     18 N2          0.0332    1.6531    0.0168 N.pl3     1 <0>        -0.8801
     19 S1          0.0692   -0.0025    0.0091 S.o2      1 <0>         2.6799
     20 O2          1.4507   -0.3352    0.0188 O.2       1 <0>        -0.9047
     21 O3         -0.7765   -0.3885    1.0838 O.2       1 <0>        -0.9066
     22 C16        -0.6768   -0.4777   -1.5747 C.3       1 <0>        -0.8287
     23 H1         -0.9110    8.7375    5.8943 H         1 <0>         0.0816
     24 H2         -2.2163    9.9309    5.6939 H         1 <0>         0.0888
     25 H3         -2.0803    8.5625    4.5638 H         1 <0>         0.0739
     26 H4         -0.7025   11.8222    5.5408 H         1 <0>         0.1309
     27 H5          0.7543   13.1707    4.0864 H         1 <0>         0.1289
     28 H6          1.6496   12.2119    2.0038 H         1 <0>         0.1332
     29 H7          1.0959    9.8984    1.3739 H         1 <0>         0.1704
     30 H8         -0.6973    7.6028    3.4283 H         1 <0>         0.2353
     31 H9         -0.3890    6.7911   -1.0259 H         1 <0>         0.1608
     32 H10        -0.7524    4.4332   -1.6242 H         1 <0>         0.1384
     33 H11        -1.2734    3.4482    2.4942 H         1 <0>         0.1448
     34 H12        -0.9047    5.7995    3.1148 H         1 <0>         0.1291
     35 H13        -1.7025    2.3039   -0.9644 H         1 <0>         0.0761
     36 H14        -1.9157    1.8922    0.7541 H         1 <0>         0.1099
     37 H15         0.8625    2.1563    0.0109 H         1 <0>         0.2514
     38 H16        -0.0912   -0.0578   -2.3926 H         1 <0>         0.1366
     39 H17        -0.6907   -1.5644   -1.6583 H         1 <0>         0.1434
     40 H18        -1.6967   -0.0963   -1.6249 H         1 <0>         0.1315
@<TRIPOS>BOND
     1    1    2 1
     2    1   23 1
     3    1   24 1
     4    1   25 1
     5    2    7 ar
     6    2    3 ar
     7    3    4 ar
     8    3   26 1
     9    4    5 ar
    10    4   27 1
    11    5    6 ar
    12    5   28 1
    13    6    7 ar
    14    6   29 1
    15    7    8 1
    16    8    9 am
    17    8   30 1
    18    9   10 2
    19    9   11 1
    20   11   16 ar
    21   11   12 ar
    22   12   13 ar
    23   12   31 1
    24   13   14 ar
    25   13   32 1
    26   14   15 ar
    27   14   17 1
    28   15   16 ar
    29   15   33 1
    30   16   34 1
    31   17   18 1
    32   17   35 1
    33   17   36 1
    34   18   19 1
    35   18   37 1
    36   19   20 2
    37   19   21 2
    38   19   22 1
    39   22   38 1
    40   22   39 1
    41   22   40 1
@<TRIPOS>MOLECULE
ZINC01427076
   44    46     0     0     0
SMALL
USER_CHARGES

@<TRIPOS>ATOM
      1 C1          6.0626   -1.1785   -0.1497 C.3       1 <0>        -0.2110
      2 C2          4.9031   -0.1951   -0.3212 C.3       1 <0>        -0.0159
      3 O1          3.6640   -0.8833   -0.1396 O.3       1 <0>        -0.2107
      4 C3          2.5262   -0.1483   -0.2596 C.ar      1 <0>         0.0448
      5 C4          2.6029    1.2067   -0.5468 C.ar      1 <0>        -0.1281
      6 C5          1.4473    1.9533   -0.6683 C.ar      1 <0>        -0.2003
      7 C6          0.2100    1.3480   -0.5041 C.ar      1 <0>         0.1563
      8 C7          0.1334   -0.0067   -0.2174 C.ar      1 <0>        -0.7497
      9 C8          1.2893   -0.7534   -0.0955 C.ar      1 <0>        -0.0241
     10 S1         -1.4383   -0.7756   -0.0094 S.o2      1 <0>         2.7757
     11 O2         -1.1877   -2.1541    0.2280 O.2       1 <0>        -0.9194
     12 O3         -2.1691    0.0338    0.9016 O.2       1 <0>        -0.8976
     13 N1         -2.2258   -0.6813   -1.4631 N.pl3     1 <0>        -0.8047
     14 C9         -1.6711   -1.2786   -2.5985 C.ar      1 <0>         0.0384
     15 C10        -0.9758   -2.4687   -2.4889 C.ar      1 <0>        -0.1370
     16 C11        -0.4255   -3.0698   -3.6135 C.ar      1 <0>        -0.1420
     17 C12        -0.5516   -2.4949   -4.8440 C.ar      1 <0>        -0.0742
     18 C13        -1.2473   -1.2856   -4.9844 C.ar      1 <0>        -0.1538
     19 C14        -1.8110   -0.6734   -3.8511 C.ar      1 <0>         0.0056
     20 N2         -2.4193    0.4767   -4.2877 N.pl3     1 <0>        -0.2228
     21 H1         -2.9111    1.1341   -3.7168 H         1 <0>         0.2831
     22 N3         -2.2310    0.5689   -5.6722 N.2       1 <0>        -0.0361
     23 C15        -1.5469   -0.4558   -6.0919 C.2       1 <0>        -0.1224
     24 O4         -0.9279    2.0818   -0.6297 O.3       1 <0>        -0.2181
     25 C16        -0.7743    3.4903   -0.8159 C.3       1 <0>        -0.0120
     26 C17        -2.1509    4.1581   -0.8140 C.3       1 <0>        -0.2113
     27 H2          7.0077   -0.6535   -0.2882 H         1 <0>         0.0869
     28 H3          6.0292   -1.6085    0.8513 H         1 <0>         0.0905
     29 H4          5.9769   -1.9740   -0.8899 H         1 <0>         0.0900
     30 H5          4.9365    0.2350   -1.3222 H         1 <0>         0.0722
     31 H6          4.9888    0.6004    0.4190 H         1 <0>         0.0723
     32 H7          3.5662    1.6779   -0.6746 H         1 <0>         0.1400
     33 H8          1.5070    3.0082   -0.8919 H         1 <0>         0.1411
     34 H9          1.2296   -1.8085    0.1274 H         1 <0>         0.1721
     35 H10        -3.0720   -0.2114   -1.5267 H         1 <0>         0.2496
     36 H11        -0.8627   -2.9362   -1.5219 H         1 <0>         0.1858
     37 H12         0.1115   -4.0014   -3.5121 H         1 <0>         0.1385
     38 H13        -0.1156   -2.9709   -5.7099 H         1 <0>         0.1320
     39 H14        -1.2561   -0.6422   -7.1152 H         1 <0>         0.1895
     40 H15        -0.1705    3.9001   -0.0063 H         1 <0>         0.0813
     41 H16        -0.2803    3.6790   -1.7690 H         1 <0>         0.0748
     42 H17        -2.0409    5.2178   -1.0439 H         1 <0>         0.0897
     43 H18        -2.7843    3.6870   -1.5656 H         1 <0>         0.0832
     44 H19        -2.6081    4.0451    0.1690 H         1 <0>         0.0976
@<TRIPOS>BOND
     1    1    2 1
     2    1   27 1
     3    1   28 1
     4    1   29 1
     5    2    3 1
     6    2   30 1
     7    2   31 1
     8    3    4 1
     9    4    9 ar
    10    4    5 ar
    11    5    6 ar
    12    5   32 1
    13    6    7 ar
    14    6   33 1
    15    7    8 ar
    16    7   24 1
    17    8    9 ar
    18    8   10 1
    19    9   34 1
    20   10   11 2
    21   10   12 2
    22   10   13 1
    23   13   14 1
    24   13   35 1
    25   14   19 ar
    26   14   15 ar
    27   15   16 ar
    28   15   36 1
    29   16   17 ar
    30   16   37 1
    31   17   18 ar
    32   17   38 1
    33   18   23 1
    34   18   19 ar
    35   19   20 1
    36   20   21 1
    37   20   22 1
    38   22   23 2
    39   23   39 1
    40   24   25 1
    41   25   26 1
    42   25   40 1
    43   25   41 1
    44   26   42 1
    45   26   43 1
    46   26   44 1
@<TRIPOS>MOLECULE
ZINC01427091
   43    45     0     0     0
SMALL
USER_CHARGES

@<TRIPOS>ATOM
      1 C1          3.7351   -0.8666   -0.0382 C.3       1 <0>        -0.2120
      2 C2          2.3128   -0.3032   -0.0216 C.3       1 <0>        -0.0189
      3 O1          2.3661    1.1248   -0.0145 O.3       1 <0>        -0.2070
      4 C3          1.1791    1.7865    0.0004 C.ar      1 <0>         0.1498
      5 C4         -0.0126    1.0758    0.0080 C.ar      1 <0>        -0.2416
      6 C5         -1.2177    1.7507    0.0173 C.ar      1 <0>         0.0006
      7 C6         -1.2370    3.1334    0.0297 C.ar      1 <0>        -0.8017
      8 C7         -0.0511    3.8437    0.0222 C.ar      1 <0>         0.0054
      9 C8          1.1570    3.1734    0.0076 C.ar      1 <0>        -0.1262
     10 C9          2.4494    3.9483   -0.0001 C.3       1 <0>        -0.1658
     11 S1         -2.7760    3.9913    0.0484 S.o2      1 <0>         2.7649
     12 O2         -3.7319    3.0985    0.6037 O.2       1 <0>        -0.9086
     13 O3         -2.5192    5.2740    0.6033 O.2       1 <0>        -0.9114
     14 N1         -3.2184    4.2376   -1.5283 N.pl3     1 <0>        -0.8804
     15 C10        -3.5281    3.0937   -2.3894 C.3       1 <0>         0.0767
     16 C11        -4.2430    3.5746   -3.6258 C.2       1 <0>        -0.0049
     17 N2         -3.6423    3.8561   -4.8135 N.pl3     1 <0>        -0.2187
     18 H1         -2.6658    3.7821   -5.0161 H         1 <0>         0.2536
     19 C12        -4.6307    4.2629   -5.6873 C.ar      1 <0>        -0.0443
     20 C13        -4.6400    4.6723   -7.0138 C.ar      1 <0>        -0.1311
     21 C14        -5.8316    5.0226   -7.6120 C.ar      1 <0>        -0.1075
     22 C15        -7.0199    4.9687   -6.8972 C.ar      1 <0>        -0.1467
     23 C16        -7.0300    4.5679   -5.5913 C.ar      1 <0>        -0.0633
     24 C17        -5.8341    4.2085   -4.9641 C.ar      1 <0>        -0.0516
     25 N3         -5.5254    3.7758   -3.7146 N.2       1 <0>        -0.1493
     26 H2          4.2706   -0.5275    0.8486 H         1 <0>         0.0909
     27 H3          3.6945   -1.9559   -0.0436 H         1 <0>         0.0902
     28 H4          4.2537   -0.5179   -0.9313 H         1 <0>         0.0890
     29 H5          1.7942   -0.6519    0.8715 H         1 <0>         0.0799
     30 H6          1.7773   -0.6424   -0.9084 H         1 <0>         0.0759
     31 H7          0.0021   -0.0041    0.0020 H         1 <0>         0.1416
     32 H8         -2.1455    1.1980    0.0187 H         1 <0>         0.1491
     33 H9         -0.0689    4.9236    0.0275 H         1 <0>         0.1552
     34 H10         2.7518    4.1403   -1.0296 H         1 <0>         0.0845
     35 H11         2.3080    4.8959    0.5198 H         1 <0>         0.0836
     36 H12         3.2232    3.3693    0.5039 H         1 <0>         0.0959
     37 H13        -3.2725    5.1394   -1.8816 H         1 <0>         0.2516
     38 H14        -2.6029    2.5937   -2.6760 H         1 <0>         0.0777
     39 H15        -4.1666    2.3946   -1.8493 H         1 <0>         0.1353
     40 H16        -3.7181    4.7157   -7.5747 H         1 <0>         0.1269
     41 H17        -5.8404    5.3410   -8.6440 H         1 <0>         0.1337
     42 H18        -7.9462    5.2460   -7.3784 H         1 <0>         0.1347
     43 H19        -7.9605    4.5292   -5.0445 H         1 <0>         0.1446
@<TRIPOS>BOND
     1    1    2 1
     2    1   26 1
     3    1   27 1
     4    1   28 1
     5    2    3 1
     6    2   29 1
     7    2   30 1
     8    3    4 1
     9    4    9 ar
    10    4    5 ar
    11    5    6 ar
    12    5   31 1
    13    6    7 ar
    14    6   32 1
    15    7    8 ar
    16    7   11 1
    17    8    9 ar
    18    8   33 1
    19    9   10 1
    20   10   34 1
    21   10   35 1
    22   10   36 1
    23   11   12 2
    24   11   13 2
    25   11   14 1
    26   14   15 1
    27   14   37 1
    28   15   16 1
    29   15   38 1
    30   15   39 1
    31   16   25 2
    32   16   17 1
    33   17   18 1
    34   17   19 1
    35   19   24 ar
    36   19   20 ar
    37   20   21 ar
    38   20   40 1
    39   21   22 ar
    40   21   41 1
    41   22   23 ar
    42   22   42 1
    43   23   24 ar
    44   23   43 1
    45   24   25 1
@<TRIPOS>MOLECULE
ZINC01427091
   44    46     0     0     0
SMALL
USER_CHARGES

@<TRIPOS>ATOM
      1 C1          3.7351   -0.8666   -0.0382 C.3       1 <0>        -0.2120
      2 C2          2.3128   -0.3032   -0.0216 C.3       1 <0>        -0.0219
      3 O1          2.3661    1.1248   -0.0145 O.3       1 <0>        -0.1968
      4 C3          1.1791    1.7865    0.0004 C.ar      1 <0>         0.1655
      5 C4         -0.0126    1.0758    0.0080 C.ar      1 <0>        -0.2374
      6 C5         -1.2177    1.7507    0.0173 C.ar      1 <0>        -0.0082
      7 C6         -1.2370    3.1334    0.0297 C.ar      1 <0>        -0.8147
      8 C7         -0.0511    3.8437    0.0222 C.ar      1 <0>         0.0045
      9 C8          1.1570    3.1734    0.0076 C.ar      1 <0>        -0.1182
     10 C9          2.4494    3.9483   -0.0001 C.3       1 <0>        -0.1693
     11 S1         -2.7760    3.9913    0.0484 S.o2      1 <0>         2.7510
     12 O2         -3.7319    3.0985    0.6037 O.2       1 <0>        -0.9022
     13 O3         -2.5192    5.2740    0.6033 O.2       1 <0>        -0.8775
     14 N1         -3.2184    4.2376   -1.5283 N.pl3     1 <0>        -0.8921
     15 C10        -3.5281    3.0937   -2.3894 C.3       1 <0>         0.0430
     16 C11        -4.2430    3.5746   -3.6258 C.cat     1 <0>         0.1127
     17 N2         -3.6423    3.8561   -4.8135 N.pl3     1 <0>        -0.1423
     18 H1         -2.6658    3.7821   -5.0161 H         1 <0>         0.3102
     19 C12        -4.6307    4.2629   -5.6873 C.ar      1 <0>        -0.0143
     20 C13        -4.6400    4.6723   -7.0138 C.ar      1 <0>        -0.1027
     21 C14        -5.8316    5.0226   -7.6120 C.ar      1 <0>        -0.0657
     22 C15        -7.0199    4.9687   -6.8972 C.ar      1 <0>        -0.0814
     23 C16        -7.0300    4.5679   -5.5913 C.ar      1 <0>        -0.0868
     24 C17        -5.8341    4.2085   -4.9641 C.ar      1 <0>        -0.0523
     25 H2          4.2706   -0.5275    0.8486 H         1 <0>         0.0972
     26 H3          3.6945   -1.9559   -0.0436 H         1 <0>         0.0978
     27 H4          4.2537   -0.5179   -0.9313 H         1 <0>         0.0916
     28 H5          1.7942   -0.6519    0.8715 H         1 <0>         0.0845
     29 H6          1.7773   -0.6424   -0.9084 H         1 <0>         0.0734
     30 H7          0.0021   -0.0041    0.0020 H         1 <0>         0.1500
     31 H8         -2.1455    1.1980    0.0187 H         1 <0>         0.1419
     32 H9         -0.0689    4.9236    0.0275 H         1 <0>         0.1570
     33 H10         2.7518    4.1403   -1.0296 H         1 <0>         0.0876
     34 H11         2.3080    4.8959    0.5198 H         1 <0>         0.0898
     35 H12         3.2232    3.3693    0.5039 H         1 <0>         0.1065
     36 H13        -3.2725    5.1394   -1.8816 H         1 <0>         0.2509
     37 H14        -2.6029    2.5937   -2.6760 H         1 <0>         0.1245
     38 H15        -4.1666    2.3946   -1.8493 H         1 <0>         0.1474
     39 H16        -3.7181    4.7157   -7.5747 H         1 <0>         0.1653
     40 H17        -5.8404    5.3410   -8.6440 H         1 <0>         0.1738
     41 H18        -7.9462    5.2460   -7.3784 H         1 <0>         0.1739
     42 H19        -7.9605    4.5292   -5.0445 H         1 <0>         0.1648
     43 N3         -5.5261    3.7756   -3.7138 N.pl3     1 <0>        -0.0908
     44 H20        -6.2018    3.6295   -2.9546 H         1 <0>         0.3220
@<TRIPOS>BOND
     1    1    2 1
     2    1   25 1
     3    1   26 1
     4    1   27 1
     5    2    3 1
     6    2   28 1
     7    2   29 1
     8    3    4 1
     9    4    9 ar
    10    4    5 ar
    11    5    6 ar
    12    5   30 1
    13    6    7 ar
    14    6   31 1
    15    7    8 ar
    16    7   11 1
    17    8    9 ar
    18    8   32 1
    19    9   10 1
    20   10   33 1
    21   10   34 1
    22   10   35 1
    23   11   12 2
    24   11   13 2
    25   11   14 1
    26   14   15 1
    27   14   36 1
    28   15   16 1
    29   15   37 1
    30   15   38 1
    31   16   17 1
    32   16   43 2
    33   17   18 1
    34   17   19 1
    35   19   24 ar
    36   19   20 ar
    37   20   21 ar
    38   20   39 1
    39   21   22 ar
    40   21   40 1
    41   22   23 ar
    42   22   41 1
    43   23   24 ar
    44   23   42 1
    45   24   43 1
    46   43   44 1
@<TRIPOS>MOLECULE
ZINC01428351
   42    44     0     0     0
SMALL
USER_CHARGES

@<TRIPOS>ATOM
      1 C1         -4.0035   -1.4105   -7.6600 C.3       1 <0>        -0.2092
      2 C2         -3.7347   -1.0030   -6.2100 C.3       1 <0>        -0.0254
      3 O1         -2.8290   -1.9337   -5.6137 O.3       1 <0>        -0.1587
      4 C3         -2.4843   -1.7150   -4.3201 C.ar      1 <0>         0.2063
      5 C4         -3.0055   -0.6278   -3.6344 C.ar      1 <0>        -0.2569
      6 C5         -2.6582   -0.4098   -2.3161 C.ar      1 <0>         0.0308
      7 C6         -1.7805   -1.2664   -1.6717 C.ar      1 <0>        -0.8135
      8 C7         -1.2532   -2.3514   -2.3376 C.ar      1 <0>         0.0353
      9 C8         -1.6003   -2.5869   -3.6702 C.ar      1 <0>        -0.1845
     10 C9         -1.0390   -3.7464   -4.3893 C.2       1 <0>         0.3521
     11 O2         -1.3435   -3.9481   -5.5491 O.2       1 <0>        -0.3468
     12 N1         -0.1888   -4.5822   -3.7607 N.am      1 <0>        -0.4317
     13 S1         -1.3421   -0.9712    0.0092 S.o2      1 <0>         2.7762
     14 O3         -0.9395   -2.2222    0.5496 O.2       1 <0>        -0.9089
     15 O4         -2.3940   -0.2005    0.5738 O.2       1 <0>        -0.9055
     16 N2          0.0021   -0.0041    0.0020 N.pl3     1 <0>        -0.7612
     17 C10        -0.0178    1.4611    0.0101 C.3       1 <0>        -0.0001
     18 C11         1.4603    1.8842   -0.0018 C.3       1 <0>        -0.1229
     19 C12         2.2280    0.5814   -0.0161 C.ar      1 <0>        -0.1232
     20 C13         1.3192   -0.4656   -0.0130 C.ar      1 <0>         0.0766
     21 C14         1.7971   -1.7776   -0.0246 C.ar      1 <0>        -0.1643
     22 C15         3.1538   -2.0231   -0.0393 C.ar      1 <0>        -0.0973
     23 C16         4.0516   -0.9717   -0.0422 C.ar      1 <0>        -0.1523
     24 C17         3.5861    0.3303   -0.0308 C.ar      1 <0>        -0.0862
     25 H1         -4.4414   -2.4084   -7.6818 H         1 <0>         0.0959
     26 H2         -4.6944   -0.7006   -8.1148 H         1 <0>         0.0859
     27 H3         -3.0662   -1.4127   -8.2165 H         1 <0>         0.0951
     28 H4         -4.6720   -1.0008   -5.6535 H         1 <0>         0.0766
     29 H5         -3.2968   -0.0051   -6.1882 H         1 <0>         0.0746
     30 H6         -3.6874    0.0466   -4.1311 H         1 <0>         0.1477
     31 H7         -3.0702    0.4357   -1.7852 H         1 <0>         0.1512
     32 H8         -0.5728   -3.0190   -1.8299 H         1 <0>         0.1481
     33 H9          0.0540   -4.4213   -2.8355 H         1 <0>         0.2147
     34 H10         0.1802   -5.3446   -4.2335 H         1 <0>         0.2335
     35 H11        -0.5259    1.8373   -0.8778 H         1 <0>         0.0848
     36 H12        -0.5088    1.8277    0.9115 H         1 <0>         0.1050
     37 H13         1.6821    2.4662   -0.8963 H         1 <0>         0.0995
     38 H14         1.6992    2.4566    0.8945 H         1 <0>         0.1032
     39 H15         1.1012   -2.6034   -0.0224 H         1 <0>         0.1565
     40 H16         3.5164   -3.0404   -0.0478 H         1 <0>         0.1344
     41 H17         5.1137   -1.1669   -0.0530 H         1 <0>         0.1333
     42 H18         4.2861    1.1527   -0.0331 H         1 <0>         0.1312
@<TRIPOS>BOND
     1    1    2 1
     2    1   25 1
     3    1   26 1
     4    1   27 1
     5    2    3 1
     6    2   28 1
     7    2   29 1
     8    3    4 1
     9    4    9 ar
    10    4    5 ar
    11    5    6 ar
    12    5   30 1
    13    6    7 ar
    14    6   31 1
    15    7    8 ar
    16    7   13 1
    17    8    9 ar
    18    8   32 1
    19    9   10 1
    20   10   11 2
    21   10   12 am
    22   12   33 1
    23   12   34 1
    24   13   14 2
    25   13   15 2
    26   13   16 1
    27   16   20 1
    28   16   17 1
    29   17   18 1
    30   17   35 1
    31   17   36 1
    32   18   19 1
    33   18   37 1
    34   18   38 1
    35   19   24 ar
    36   19   20 ar
    37   20   21 ar
    38   21   22 ar
    39   21   39 1
    40   22   23 ar
    41   22   40 1
    42   23   24 ar
    43   23   41 1
    44   24   42 1
@<TRIPOS>MOLECULE
ZINC01430048
   40    42     0     0     0
SMALL
USER_CHARGES

@<TRIPOS>ATOM
      1 C1          5.9992   -0.7506   -0.0619 C.3       1 <0>        -0.2120
      2 C2          4.7725    0.1636   -0.0441 C.3       1 <0>        -0.0191
      3 O1          3.5855   -0.6321   -0.0371 O.3       1 <0>        -0.2074
      4 C3          2.3989    0.0302   -0.0212 C.ar      1 <0>         0.1522
      5 C4          2.3774    1.4175   -0.0131 C.ar      1 <0>        -0.2407
      6 C5          1.1700    2.0882    0.0021 C.ar      1 <0>         0.0120
      7 C6         -0.0167    1.3782    0.0096 C.ar      1 <0>        -0.7964
      8 C7          0.0021   -0.0041    0.0020 C.ar      1 <0>         0.0055
      9 C8          1.2072   -0.6797   -0.0136 C.ar      1 <0>        -0.1270
     10 C9          1.2269   -2.1865   -0.0219 C.3       1 <0>        -0.1648
     11 S1         -1.5552    2.2369    0.0216 S.o2      1 <0>         2.7669
     12 O2         -1.3056    3.5252   -0.5234 O.2       1 <0>        -0.9153
     13 O3         -2.5194    1.3503   -0.5295 O.2       1 <0>        -0.9132
     14 N1         -1.9753    2.4669    1.6068 N.pl3     1 <0>        -0.8138
     15 C10        -1.1911    3.2823    2.4258 C.ar      1 <0>         0.1025
     16 C11        -0.7457    4.5175    1.9510 C.ar      1 <0>        -0.2053
     17 C12         0.0204    5.3265    2.7360 C.ar      1 <0>        -0.0362
     18 C13         0.3653    4.9190    4.0302 C.ar      1 <0>        -0.1833
     19 C14         1.1478    5.5212    5.1052 C.2       1 <0>        -0.1194
     20 N2          1.1463    4.6936    6.1107 N.2       1 <0>        -0.0325
     21 N3          0.4057    3.5509    5.7914 N.pl3     1 <0>        -0.2294
     22 H1          0.2552    2.7691    6.3966 H         1 <0>         0.2825
     23 C15        -0.0808    3.6745    4.5158 C.ar      1 <0>         0.0397
     24 C16        -0.8664    2.8628    3.7026 C.ar      1 <0>        -0.1834
     25 H2          6.9046   -0.1437   -0.0672 H         1 <0>         0.0898
     26 H3          5.9923   -1.3851    0.8244 H         1 <0>         0.0891
     27 H4          5.9746   -1.3743   -0.9554 H         1 <0>         0.0901
     28 H5          4.7793    0.7981   -0.9304 H         1 <0>         0.0790
     29 H6          4.7971    0.7873    0.8494 H         1 <0>         0.0780
     30 H7          3.3039    1.9724   -0.0194 H         1 <0>         0.1419
     31 H8          1.1527    3.1681    0.0077 H         1 <0>         0.1516
     32 H9         -0.9260   -0.5563    0.0079 H         1 <0>         0.1530
     33 H10         1.2214   -2.5443   -1.0515 H         1 <0>         0.0893
     34 H11         2.1266   -2.5409    0.4811 H         1 <0>         0.0937
     35 H12         0.3469   -2.5643    0.4987 H         1 <0>         0.0788
     36 H13        -2.7660    2.0353    1.9666 H         1 <0>         0.2536
     37 H14        -1.0102    4.8345    0.9530 H         1 <0>         0.1839
     38 H15         0.3605    6.2803    2.3605 H         1 <0>         0.1384
     39 H16         1.6405    6.4818    5.0724 H         1 <0>         0.1923
     40 H17        -1.2176    1.9082    4.0658 H         1 <0>         0.1354
@<TRIPOS>BOND
     1    1    2 1
     2    1   25 1
     3    1   26 1
     4    1   27 1
     5    2    3 1
     6    2   28 1
     7    2   29 1
     8    3    4 1
     9    4    9 ar
    10    4    5 ar
    11    5    6 ar
    12    5   30 1
    13    6    7 ar
    14    6   31 1
    15    7    8 ar
    16    7   11 1
    17    8    9 ar
    18    8   32 1
    19    9   10 1
    20   10   33 1
    21   10   34 1
    22   10   35 1
    23   11   12 2
    24   11   13 2
    25   11   14 1
    26   14   15 1
    27   14   36 1
    28   15   24 ar
    29   15   16 ar
    30   16   17 ar
    31   16   37 1
    32   17   18 ar
    33   17   38 1
    34   18   23 ar
    35   18   19 1
    36   19   20 2
    37   19   39 1
    38   20   21 1
    39   21   22 1
    40   21   23 1
    41   23   24 ar
    42   24   40 1
@<TRIPOS>MOLECULE
ZINC01430048
   40    42     0     0     0
SMALL
USER_CHARGES

@<TRIPOS>ATOM
      1 C1          5.9767   -0.7866   -0.0566 C.3       1 <0>        -0.2121
      2 C2          4.7543    0.1332   -0.0399 C.3       1 <0>        -0.0186
      3 O1          3.5636   -0.6570   -0.0310 O.3       1 <0>        -0.2076
      4 C3          2.3801    0.0108   -0.0157 C.ar      1 <0>         0.1516
      5 C4          2.3650    1.3982   -0.0101 C.ar      1 <0>        -0.2411
      6 C5          1.1607    2.0745    0.0044 C.ar      1 <0>         0.0125
      7 C6         -0.0293    1.3700    0.0137 C.ar      1 <0>        -0.7945
      8 C7         -0.0168   -0.0124    0.0085 C.ar      1 <0>         0.0067
      9 C8          1.1851   -0.6936   -0.0064 C.ar      1 <0>        -0.1264
     10 C9          1.1979   -2.2005   -0.0120 C.3       1 <0>        -0.1646
     11 S1         -1.5638    2.2358    0.0248 S.o2      1 <0>         2.7677
     12 O2         -1.3085    3.5220   -0.5226 O.2       1 <0>        -0.9179
     13 O3         -2.5323    1.3527   -0.5243 O.2       1 <0>        -0.9154
     14 N1         -1.9821    2.4705    1.6098 N.pl3     1 <0>        -0.8127
     15 C10        -1.1938    3.2838    2.4270 C.ar      1 <0>         0.0863
     16 C11        -0.7430    4.5160    1.9498 C.ar      1 <0>        -0.1985
     17 C12         0.0272    5.3229    2.7331 C.ar      1 <0>        -0.0448
     18 C13         0.3708    4.9161    4.0278 C.ar      1 <0>        -0.1918
     19 C14         1.1565    5.5166    5.1014 C.2       1 <0>        -0.1076
     20 N2          1.1463    4.6936    6.1107 N.pl3     1 <0>        -0.0682
     21 N3          0.4056    3.5509    5.7914 N.2       1 <0>        -0.1519
     22 H1          1.6016    4.8551    6.9862 H         1 <0>         0.2823
     23 C15        -0.0809    3.6745    4.5158 C.ar      1 <0>        -0.0079
     24 C16        -0.8665    2.8628    3.7026 C.ar      1 <0>        -0.1385
     25 H2          6.8849   -0.1839   -0.0633 H         1 <0>         0.0886
     26 H3          5.9673   -1.4195    0.8309 H         1 <0>         0.0893
     27 H4          5.9489   -1.4118   -0.9489 H         1 <0>         0.0899
     28 H5          4.7636    0.7661   -0.9273 H         1 <0>         0.0782
     29 H6          4.7821    0.7584    0.8525 H         1 <0>         0.0776
     30 H7          3.2940    1.9488   -0.0178 H         1 <0>         0.1403
     31 H8          1.1484    3.1545    0.0081 H         1 <0>         0.1510
     32 H9         -0.9475   -0.5603    0.0158 H         1 <0>         0.1532
     33 H10         1.1903   -2.5601   -1.0410 H         1 <0>         0.0881
     34 H11         2.0962   -2.5581    0.4912 H         1 <0>         0.0935
     35 H12         0.3164   -2.5733    0.5096 H         1 <0>         0.0795
     36 H13        -2.7747    2.0432    1.9707 H         1 <0>         0.2537
     37 H14        -1.0064    4.8325    0.9514 H         1 <0>         0.1815
     38 H15         0.3714    6.2745    2.3558 H         1 <0>         0.1314
     39 H16         1.6533    6.4750    5.0669 H         1 <0>         0.1735
     40 H17        -1.2177    1.9083    4.0659 H         1 <0>         0.1440
@<TRIPOS>BOND
     1    1    2 1
     2    1   25 1
     3    1   26 1
     4    1   27 1
     5    2    3 1
     6    2   28 1
     7    2   29 1
     8    3    4 1
     9    4    9 ar
    10    4    5 ar
    11    5    6 ar
    12    5   30 1
    13    6    7 ar
    14    6   31 1
    15    7    8 ar
    16    7   11 1
    17    8    9 ar
    18    8   32 1
    19    9   10 1
    20   10   33 1
    21   10   34 1
    22   10   35 1
    23   11   12 2
    24   11   13 2
    25   11   14 1
    26   14   15 1
    27   14   36 1
    28   15   24 ar
    29   15   16 ar
    30   16   17 ar
    31   16   37 1
    32   17   18 ar
    33   17   38 1
    34   18   23 ar
    35   18   19 2
    36   19   39 1
    37   19   20 1
    38   20   22 1
    39   20   21 1
    40   21   23 2
    41   23   24 ar
    42   24   40 1
@<TRIPOS>MOLECULE
ZINC01430703
   43    45     0     0     0
SMALL
USER_CHARGES

@<TRIPOS>ATOM
      1 C1         -0.9951    0.4403   -1.3504 C.3       1 <0>        -0.2121
      2 C2         -0.1611    0.2695   -0.0791 C.3       1 <0>        -0.0186
      3 O1         -0.9025    0.7483    1.0448 O.3       1 <0>        -0.2079
      4 C3         -0.3005    0.6682    2.2605 C.ar      1 <0>         0.1560
      5 C4          0.9778    0.1397    2.3695 C.ar      1 <0>        -0.2459
      6 C5          1.5875    0.0593    3.6063 C.ar      1 <0>         0.0149
      7 C6          0.9253    0.5055    4.7353 C.ar      1 <0>        -0.7930
      8 C7         -0.3486    1.0321    4.6294 C.ar      1 <0>         0.0608
      9 C8         -0.9606    1.1199    3.3938 C.ar      1 <0>        -0.1279
     10 C9         -2.3465    1.7003    3.2782 C.3       1 <0>        -0.1659
     11 C10        -1.0676    1.5170    5.8619 C.3       1 <0>        -0.1977
     12 S1          1.7061    0.4022    6.3114 S.o2      1 <0>         2.7720
     13 O2          2.9686   -0.2145    6.0996 O.2       1 <0>        -0.9201
     14 O3          1.5751    1.6823    6.9143 O.2       1 <0>        -0.9131
     15 N1          0.8150   -0.6476    7.2314 N.pl3     1 <0>        -0.8163
     16 C11         0.6646   -1.9759    6.8270 C.ar      1 <0>         0.1038
     17 C12         1.7772   -2.6969    6.3888 C.ar      1 <0>        -0.2007
     18 C13         1.6495   -3.9941    5.9905 C.ar      1 <0>        -0.0348
     19 C14         0.3937   -4.6123    6.0200 C.ar      1 <0>        -0.1820
     20 C15        -0.0846   -5.9472    5.6737 C.2       1 <0>        -0.1191
     21 N2         -1.3669   -5.9813    5.8980 N.2       1 <0>        -0.0328
     22 N3         -1.8035   -4.7433    6.3807 N.pl3     1 <0>        -0.2297
     23 H1         -2.7456   -4.5162    6.6275 H         1 <0>         0.2820
     24 C16        -0.7327   -3.8912    6.4612 C.ar      1 <0>         0.0400
     25 C17        -0.5837   -2.5687    6.8691 C.ar      1 <0>        -0.1834
     26 H2         -1.2293    1.4954   -1.4923 H         1 <0>         0.0894
     27 H3         -0.4296    0.0752   -2.2077 H         1 <0>         0.0895
     28 H4         -1.9205   -0.1279   -1.2569 H         1 <0>         0.0894
     29 H5          0.0731   -0.7855    0.0628 H         1 <0>         0.0785
     30 H6          0.7643    0.8378   -0.1726 H         1 <0>         0.0784
     31 H7          1.4957   -0.2083    1.4880 H         1 <0>         0.1411
     32 H8          2.5825   -0.3520    3.6916 H         1 <0>         0.1555
     33 H9         -3.0838    0.9050    3.3884 H         1 <0>         0.0844
     34 H10        -2.4953    2.4444    4.0606 H         1 <0>         0.0811
     35 H11        -2.4631    2.1711    2.3021 H         1 <0>         0.0954
     36 H12        -0.7938    2.5536    6.0580 H         1 <0>         0.1210
     37 H13        -2.1441    1.4490    5.7049 H         1 <0>         0.0941
     38 H14        -0.7850    0.8990    6.7141 H         1 <0>         0.0762
     39 H15         0.3975   -0.3399    8.0511 H         1 <0>         0.2528
     40 H16         2.7472   -2.2226    6.3650 H         1 <0>         0.1808
     41 H17         2.5155   -4.5441    5.6530 H         1 <0>         0.1381
     42 H18         0.5176   -6.7613    5.2981 H         1 <0>         0.1921
     43 H19        -1.4397   -2.0073    7.2132 H         1 <0>         0.1337
@<TRIPOS>BOND
     1    1    2 1
     2    1   26 1
     3    1   27 1
     4    1   28 1
     5    2    3 1
     6    2   29 1
     7    2   30 1
     8    3    4 1
     9    4    9 ar
    10    4    5 ar
    11    5    6 ar
    12    5   31 1
    13    6    7 ar
    14    6   32 1
    15    7    8 ar
    16    7   12 1
    17    8    9 ar
    18    8   11 1
    19    9   10 1
    20   10   33 1
    21   10   34 1
    22   10   35 1
    23   11   36 1
    24   11   37 1
    25   11   38 1
    26   12   13 2
    27   12   14 2
    28   12   15 1
    29   15   16 1
    30   15   39 1
    31   16   25 ar
    32   16   17 ar
    33   17   18 ar
    34   17   40 1
    35   18   19 ar
    36   18   41 1
    37   19   24 ar
    38   19   20 1
    39   20   21 2
    40   20   42 1
    41   21   22 1
    42   22   23 1
    43   22   24 1
    44   24   25 ar
    45   25   43 1
@<TRIPOS>MOLECULE
ZINC01430703
   43    45     0     0     0
SMALL
USER_CHARGES

@<TRIPOS>ATOM
      1 C1         -1.0206    0.4702   -1.3327 C.3       1 <0>        -0.2121
      2 C2         -0.1826    0.2948   -0.0647 C.3       1 <0>        -0.0181
      3 O1         -0.9206    0.7690    1.0633 O.3       1 <0>        -0.2081
      4 C3         -0.3149    0.6844    2.2768 C.ar      1 <0>         0.1548
      5 C4          0.9639    0.1559    2.3798 C.ar      1 <0>        -0.2471
      6 C5          1.5775    0.0709    3.6144 C.ar      1 <0>         0.0142
      7 C6          0.9187    0.5126    4.7472 C.ar      1 <0>        -0.7917
      8 C7         -0.3557    1.0392    4.6473 C.ar      1 <0>         0.0630
      9 C8         -0.9716    1.1316    3.4139 C.ar      1 <0>        -0.1267
     10 C9         -2.3580    1.7120    3.3048 C.3       1 <0>        -0.1661
     11 C10        -1.0710    1.5191    5.8838 C.3       1 <0>        -0.1979
     12 S1          1.7044    0.4035    6.3204 S.o2      1 <0>         2.7728
     13 O2          2.9664   -0.2120    6.1024 O.2       1 <0>        -0.9226
     14 O3          1.5749    1.6812    6.9287 O.2       1 <0>        -0.9152
     15 N1          0.8164   -0.6501    7.2392 N.pl3     1 <0>        -0.8153
     16 C11         0.6652   -1.9769    6.8301 C.ar      1 <0>         0.0880
     17 C12         1.7766   -2.6959    6.3857 C.ar      1 <0>        -0.1942
     18 C13         1.6481   -3.9916    5.9829 C.ar      1 <0>        -0.0433
     19 C14         0.3926   -4.6103    6.0138 C.ar      1 <0>        -0.1905
     20 C15        -0.0864   -5.9440    5.6639 C.2       1 <0>        -0.1074
     21 N2         -1.3669   -5.9813    5.8980 N.pl3     1 <0>        -0.0682
     22 N3         -1.8035   -4.7433    6.3808 N.2       1 <0>        -0.1529
     23 H1         -1.9527   -6.7788    5.7536 H         1 <0>         0.2820
     24 C16        -0.7327   -3.8912    6.4613 C.ar      1 <0>        -0.0074
     25 C17        -0.5837   -2.5687    6.8692 C.ar      1 <0>        -0.1388
     26 H2         -1.2555    1.5258   -1.4699 H         1 <0>         0.0894
     27 H3         -0.4576    0.1086   -2.1932 H         1 <0>         0.0884
     28 H4         -1.9455   -0.0986   -1.2386 H         1 <0>         0.0892
     29 H5          0.0524   -0.7607    0.0724 H         1 <0>         0.0776
     30 H6          0.7423    0.8637   -0.1589 H         1 <0>         0.0779
     31 H7          1.4792   -0.1885    1.4954 H         1 <0>         0.1395
     32 H8          2.5729   -0.3404    3.6951 H         1 <0>         0.1546
     33 H9         -3.0947    0.9160    3.4143 H         1 <0>         0.0863
     34 H10        -2.5046    2.4530    4.0906 H         1 <0>         0.0810
     35 H11        -2.4778    2.1865    2.3309 H         1 <0>         0.0939
     36 H12        -0.7969    2.5551    6.0831 H         1 <0>         0.1195
     37 H13        -2.1480    1.4514    5.7299 H         1 <0>         0.0956
     38 H14        -0.7856    0.8980    6.7328 H         1 <0>         0.0781
     39 H15         0.4014   -0.3457    8.0613 H         1 <0>         0.2528
     40 H16         2.7464   -2.2212    6.3607 H         1 <0>         0.1783
     41 H17         2.5132   -4.5400    5.6406 H         1 <0>         0.1311
     42 H18         0.5149   -6.7565    5.2836 H         1 <0>         0.1733
     43 H19        -1.4397   -2.0073    7.2133 H         1 <0>         0.1422
@<TRIPOS>BOND
     1    1    2 1
     2    1   26 1
     3    1   27 1
     4    1   28 1
     5    2    3 1
     6    2   29 1
     7    2   30 1
     8    3    4 1
     9    4    9 ar
    10    4    5 ar
    11    5    6 ar
    12    5   31 1
    13    6    7 ar
    14    6   32 1
    15    7    8 ar
    16    7   12 1
    17    8    9 ar
    18    8   11 1
    19    9   10 1
    20   10   33 1
    21   10   34 1
    22   10   35 1
    23   11   36 1
    24   11   37 1
    25   11   38 1
    26   12   13 2
    27   12   14 2
    28   12   15 1
    29   15   16 1
    30   15   39 1
    31   16   25 ar
    32   16   17 ar
    33   17   18 ar
    34   17   40 1
    35   18   19 ar
    36   18   41 1
    37   19   24 ar
    38   19   20 2
    39   20   42 1
    40   20   21 1
    41   21   23 1
    42   21   22 1
    43   22   24 2
    44   24   25 ar
    45   25   43 1
@<TRIPOS>MOLECULE
ZINC01438427
   45    47     0     0     0
SMALL
USER_CHARGES

@<TRIPOS>ATOM
      1 C1          7.6863    5.2724    1.2387 C.3       1 <0>        -0.2495
      2 C2          7.2256    3.8134    1.2454 C.3       1 <0>         0.0191
      3 H1          6.3222    3.7204    1.8481 H         1 <0>         0.0688
      4 C3          6.9313    3.3650   -0.1875 C.3       1 <0>         0.0268
      5 N1          6.3773    2.0088   -0.1707 N.am      1 <0>        -0.3356
      6 C4          4.9554    1.6580   -0.0762 C.3       1 <0>         0.1190
      7 H2          4.5367    2.0383    0.8556 H         1 <0>         0.1121
      8 C5          4.8915    0.1486   -0.0965 C.2       1 <0>        -0.2318
      9 C6          6.1671   -0.2951   -0.1878 C.2       1 <0>         0.0444
     10 C7          7.0821    0.8649   -0.2392 C.2       1 <0>         0.3134
     11 O1          8.2919    0.7954   -0.3263 O.2       1 <0>        -0.3334
     12 O2          6.5444   -1.5936   -0.2280 O.3       1 <0>        -0.2117
     13 C8          3.6819   -0.6763   -0.0247 C.2       1 <0>         0.3411
     14 O3          3.3562   -1.3623   -0.9752 O.2       1 <0>        -0.2597
     15 C9          2.8577   -0.6747    1.2028 C.ar      1 <0>        -0.1469
     16 C10         1.6652   -1.4001    1.2479 C.ar      1 <0>        -0.0668
     17 C11         0.9014   -1.3945    2.3964 C.ar      1 <0>        -0.1421
     18 C12         1.3141   -0.6720    3.5022 C.ar      1 <0>        -0.1010
     19 C13         2.4948    0.0490    3.4644 C.ar      1 <0>        -0.1446
     20 C14         3.2685    0.0519    2.3225 C.ar      1 <0>        -0.0925
     21 C15         4.2027    2.2243   -1.2525 C.ar      1 <0>        -0.1120
     22 C16         4.7478    2.1504   -2.5210 C.ar      1 <0>        -0.0863
     23 C17         4.0572    2.6637   -3.6018 C.ar      1 <0>        -0.1519
     24 C18         2.8211    3.2643   -3.4118 C.ar      1 <0>         0.0800
     25 C19         2.2789    3.3422   -2.1372 C.ar      1 <0>        -0.1540
     26 C20         2.9707    2.8219   -1.0606 C.ar      1 <0>        -0.1033
     27 O4          2.1427    3.7758   -4.4725 O.3       1 <0>        -0.2896
     28 O5          8.2547    2.9915    1.7999 O.3       1 <0>        -0.3333
     29 H3          6.9013    5.8993    0.8158 H         1 <0>         0.0802
     30 H4          7.8960    5.5918    2.2595 H         1 <0>         0.0798
     31 H5          8.5898    5.3654    0.6361 H         1 <0>         0.0934
     32 H6          7.8540    3.3733   -0.7676 H         1 <0>         0.1245
     33 H7          6.2110    4.0461   -0.6406 H         1 <0>         0.1034
     34 H8          7.5405   -1.6493   -0.2960 H         1 <0>         0.2525
     35 H9          1.3416   -1.9638    0.3854 H         1 <0>         0.1541
     36 H10        -0.0211   -1.9550    2.4327 H         1 <0>         0.1359
     37 H11         0.7098   -0.6672    4.3973 H         1 <0>         0.1314
     38 H12         2.8109    0.6110    4.3308 H         1 <0>         0.1316
     39 H13         4.1898    0.6147    2.2944 H         1 <0>         0.1343
     40 H14         5.7124    1.6873   -2.6676 H         1 <0>         0.1426
     41 H15         4.4812    2.6015   -4.5931 H         1 <0>         0.1446
     42 H16         1.3166    3.8089   -1.9869 H         1 <0>         0.1424
     43 H17         2.5490    2.8823   -0.0682 H         1 <0>         0.1335
     44 H18         2.3440    4.7032   -4.6580 H         1 <0>         0.2275
     45 H19         8.4933    3.2195    2.7088 H         1 <0>         0.2099
@<TRIPOS>BOND
     1    1    2 1
     2    1   29 1
     3    1   30 1
     4    1   31 1
     5    2    3 1
     6    2    4 1
     7    2   28 1
     8    4    5 1
     9    4   32 1
    10    4   33 1
    11    5   10 am
    12    5    6 1
    13    6    7 1
    14    6    8 1
    15    6   21 1
    16    8    9 2
    17    8   13 1
    18    9   10 1
    19    9   12 1
    20   10   11 2
    21   12   34 1
    22   13   14 2
    23   13   15 1
    24   15   20 ar
    25   15   16 ar
    26   16   17 ar
    27   16   35 1
    28   17   18 ar
    29   17   36 1
    30   18   19 ar
    31   18   37 1
    32   19   20 ar
    33   19   38 1
    34   20   39 1
    35   21   26 ar
    36   21   22 ar
    37   22   23 ar
    38   22   40 1
    39   23   24 ar
    40   23   41 1
    41   24   25 ar
    42   24   27 1
    43   25   26 ar
    44   25   42 1
    45   26   43 1
    46   27   44 1
    47   28   45 1
@<TRIPOS>MOLECULE
ZINC01438427
   45    47     0     0     0
SMALL
USER_CHARGES

@<TRIPOS>ATOM
      1 C1          7.6863    5.2724    1.2387 C.3       1 <0>        -0.2496
      2 C2          7.2256    3.8134    1.2454 C.3       1 <0>         0.0195
      3 H1          6.3222    3.7204    1.8481 H         1 <0>         0.0677
      4 C3          6.9313    3.3650   -0.1875 C.3       1 <0>         0.0273
      5 N1          6.3773    2.0088   -0.1707 N.am      1 <0>        -0.3455
      6 C4          4.9554    1.6580   -0.0762 C.3       1 <0>         0.1054
      7 H2          4.5367    2.0383    0.8556 H         1 <0>         0.1138
      8 C5          4.8915    0.1486   -0.0965 C.3       1 <0>        -0.2748
      9 C6          6.1671   -0.2951   -0.1878 C.2       1 <0>         0.1952
     10 C7          7.0821    0.8649   -0.2392 C.2       1 <0>         0.2880
     11 O1          8.2919    0.7954   -0.3263 O.2       1 <0>        -0.2706
     12 O2          6.5444   -1.5936   -0.2280 O.2       1 <0>        -0.2773
     13 C8          3.6819   -0.6763   -0.0247 C.2       1 <0>         0.3342
     14 O3          3.3562   -1.3623   -0.9752 O.2       1 <0>        -0.2633
     15 C9          2.8577   -0.6747    1.2028 C.ar      1 <0>        -0.1589
     16 C10         1.6652   -1.4001    1.2479 C.ar      1 <0>        -0.0616
     17 C11         0.9014   -1.3945    2.3964 C.ar      1 <0>        -0.1424
     18 C12         1.3141   -0.6720    3.5022 C.ar      1 <0>        -0.0936
     19 C13         2.4948    0.0490    3.4644 C.ar      1 <0>        -0.1440
     20 C14         3.2685    0.0519    2.3225 C.ar      1 <0>        -0.0844
     21 C15         4.2027    2.2243   -1.2525 C.ar      1 <0>        -0.1389
     22 C16         4.7478    2.1504   -2.5210 C.ar      1 <0>        -0.0958
     23 C17         4.0572    2.6637   -3.6018 C.ar      1 <0>        -0.1492
     24 C18         2.8211    3.2643   -3.4118 C.ar      1 <0>         0.0866
     25 C19         2.2789    3.3422   -2.1372 C.ar      1 <0>        -0.1530
     26 C20         2.9707    2.8219   -1.0606 C.ar      1 <0>        -0.0970
     27 O4          2.1427    3.7758   -4.4725 O.3       1 <0>        -0.2885
     28 O5          8.2547    2.9915    1.7999 O.3       1 <0>        -0.3319
     29 H3          6.9013    5.8993    0.8158 H         1 <0>         0.0794
     30 H4          7.8960    5.5918    2.2595 H         1 <0>         0.0810
     31 H5          8.5898    5.3654    0.6361 H         1 <0>         0.0943
     32 H6          7.8540    3.3733   -0.7676 H         1 <0>         0.1265
     33 H7          6.2110    4.0461   -0.6406 H         1 <0>         0.1019
     34 H8          4.8132   -0.1690   -1.0415 H         1 <0>         0.1855
     35 H9          1.3416   -1.9638    0.3854 H         1 <0>         0.1543
     36 H10        -0.0211   -1.9550    2.4327 H         1 <0>         0.1384
     37 H11         0.7098   -0.6672    4.3973 H         1 <0>         0.1340
     38 H12         2.8109    0.6110    4.3308 H         1 <0>         0.1348
     39 H13         4.1898    0.6147    2.2944 H         1 <0>         0.1362
     40 H14         5.7124    1.6873   -2.6676 H         1 <0>         0.1428
     41 H15         4.4812    2.6015   -4.5931 H         1 <0>         0.1485
     42 H16         1.3166    3.8089   -1.9869 H         1 <0>         0.1458
     43 H17         2.5490    2.8823   -0.0682 H         1 <0>         0.1363
     44 H18         2.3440    4.7032   -4.6580 H         1 <0>         0.2313
     45 H19         8.4933    3.2195    2.7088 H         1 <0>         0.2117
@<TRIPOS>BOND
     1    1    2 1
     2    1   29 1
     3    1   30 1
     4    1   31 1
     5    2    3 1
     6    2    4 1
     7    2   28 1
     8    4    5 1
     9    4   32 1
    10    4   33 1
    11    5   10 am
    12    5    6 1
    13    6    7 1
    14    6   21 1
    15    6    8 1
    16    8   34 1
    17    8    9 1
    18    8   13 1
    19    9   10 1
    20    9   12 2
    21   10   11 2
    22   13   15 1
    23   13   14 2
    24   15   20 ar
    25   15   16 ar
    26   16   17 ar
    27   16   35 1
    28   17   18 ar
    29   17   36 1
    30   18   19 ar
    31   18   37 1
    32   19   20 ar
    33   19   38 1
    34   20   39 1
    35   21   26 ar
    36   21   22 ar
    37   22   23 ar
    38   22   40 1
    39   23   24 ar
    40   23   41 1
    41   24   25 ar
    42   24   27 1
    43   25   26 ar
    44   25   42 1
    45   26   43 1
    46   27   44 1
    47   28   45 1
@<TRIPOS>MOLECULE
ZINC01438427
   45    47     0     0     0
SMALL
USER_CHARGES

@<TRIPOS>ATOM
      1 C1          7.6919    5.2655    1.2533 C.3       1 <0>        -0.2502
      2 C2          7.2308    3.8066    1.2548 C.3       1 <0>         0.0202
      3 H1          6.3292    3.7111    1.8599 H         1 <0>         0.0649
      4 C3          6.9319    3.3648   -0.1792 C.3       1 <0>         0.0263
      5 N1          6.3776    2.0087   -0.1668 N.am      1 <0>        -0.3502
      6 C4          4.9554    1.6580   -0.0762 C.3       1 <0>         0.1669
      7 H2          4.5367    2.0383    0.8556 H         1 <0>         0.0827
      8 C5          4.8915    0.1486   -0.0965 C.2       1 <0>        -0.5747
      9 C6          6.1667   -0.2950   -0.1938 C.2       1 <0>         0.2285
     10 C7          7.0818    0.8650   -0.2427 C.2       1 <0>         0.3036
     11 O1          8.2913    0.7955   -0.3339 O.2       1 <0>        -0.2996
     12 O2          6.5435   -1.5934   -0.2411 O.2       1 <0>        -0.4124
     13 C8          3.6819   -0.6763   -0.0247 C.2       1 <0>         0.4053
     14 O3          3.3562   -1.3623   -0.9752 O.3       1 <0>        -0.1280
     15 C9          2.8577   -0.6747    1.2028 C.ar      1 <0>        -0.1329
     16 C10         1.6652   -1.4001    1.2479 C.ar      1 <0>        -0.0664
     17 C11         0.9014   -1.3945    2.3964 C.ar      1 <0>        -0.1452
     18 C12         1.3141   -0.6720    3.5022 C.ar      1 <0>        -0.0744
     19 C13         2.4948    0.0490    3.4644 C.ar      1 <0>        -0.1479
     20 C14         3.2685    0.0519    2.3225 C.ar      1 <0>        -0.0422
     21 C15         4.2027    2.2243   -1.2525 C.ar      1 <0>        -0.1143
     22 C16         4.7478    2.1504   -2.5210 C.ar      1 <0>        -0.0988
     23 C17         4.0572    2.6637   -3.6018 C.ar      1 <0>        -0.1562
     24 C18         2.8211    3.2643   -3.4118 C.ar      1 <0>         0.0711
     25 C19         2.2789    3.3422   -2.1372 C.ar      1 <0>        -0.1558
     26 C20         2.9707    2.8219   -1.0606 C.ar      1 <0>        -0.1175
     27 O4          2.1427    3.7758   -4.4725 O.3       1 <0>        -0.2920
     28 O5          8.2614    2.9820    1.8024 O.3       1 <0>        -0.3266
     29 H3          6.9057    5.8946    0.8357 H         1 <0>         0.0769
     30 H4          7.9048    5.5802    2.2749 H         1 <0>         0.0766
     31 H5          8.5935    5.3610    0.6483 H         1 <0>         0.0929
     32 H6          7.8528    3.3755   -0.7621 H         1 <0>         0.1222
     33 H7          6.2104    4.0482   -0.6270 H         1 <0>         0.0940
     34 H8          4.0195   -1.2445   -1.7142 H         1 <0>         0.3145
     35 H9          1.3416   -1.9638    0.3854 H         1 <0>         0.1476
     36 H10        -0.0211   -1.9550    2.4327 H         1 <0>         0.1433
     37 H11         0.7098   -0.6672    4.3973 H         1 <0>         0.1399
     38 H12         2.8109    0.6110    4.3308 H         1 <0>         0.1447
     39 H13         4.1898    0.6147    2.2944 H         1 <0>         0.1628
     40 H14         5.7124    1.6873   -2.6676 H         1 <0>         0.1490
     41 H15         4.4812    2.6015   -4.5931 H         1 <0>         0.1441
     42 H16         1.3166    3.8089   -1.9869 H         1 <0>         0.1407
     43 H17         2.5490    2.8823   -0.0682 H         1 <0>         0.1312
     44 H18         2.3440    4.7032   -4.6580 H         1 <0>         0.2290
     45 H19         8.5028    3.2058    2.7116 H         1 <0>         0.2061
@<TRIPOS>BOND
     1    1    2 1
     2    1   29 1
     3    1   30 1
     4    1   31 1
     5    2    3 1
     6    2    4 1
     7    2   28 1
     8    4    5 1
     9    4   32 1
    10    4   33 1
    11    5   10 am
    12    5    6 1
    13    6    7 1
    14    6   21 1
    15    6    8 1
    16    8    9 1
    17    8   13 2
    18    9   10 1
    19    9   12 2
    20   10   11 2
    21   13   15 1
    22   13   14 1
    23   14   34 1
    24   15   20 ar
    25   15   16 ar
    26   16   17 ar
    27   16   35 1
    28   17   18 ar
    29   17   36 1
    30   18   19 ar
    31   18   37 1
    32   19   20 ar
    33   19   38 1
    34   20   39 1
    35   21   26 ar
    36   21   22 ar
    37   22   23 ar
    38   22   40 1
    39   23   24 ar
    40   23   41 1
    41   24   25 ar
    42   24   27 1
    43   25   26 ar
    44   25   42 1
    45   26   43 1
    46   27   44 1
    47   28   45 1
@<TRIPOS>MOLECULE
ZINC01438428
   45    47     0     0     0
SMALL
USER_CHARGES

@<TRIPOS>ATOM
      1 C1          2.1421    1.5165   -1.2385 C.3       1 <0>        -0.2485
      2 C2          1.3425    1.7946    0.0360 C.3       1 <0>         0.0141
      3 H1          1.0712    2.8497    0.0717 H         1 <0>         0.1323
      4 C3          2.1936    1.4451    1.2584 C.3       1 <0>        -0.0158
      5 N1          1.4280    1.7114    2.4787 N.am      1 <0>        -0.3303
      6 C4          1.4035    2.9752    3.2243 C.3       1 <0>         0.1199
      7 H2          2.4045    3.2204    3.5791 H         1 <0>         0.1128
      8 C5          0.4735    2.7561    4.3947 C.2       1 <0>        -0.2265
      9 C6          0.0309    1.4798    4.3083 C.2       1 <0>         0.0432
     10 C7          0.6275    0.8387    3.1173 C.2       1 <0>         0.3174
     11 O1          0.4246   -0.3067    2.7668 O.2       1 <0>        -0.3577
     12 O2         -0.8221    0.8855    5.1739 O.3       1 <0>        -0.2107
     13 C8          0.1229    3.7350    5.4280 C.2       1 <0>         0.3408
     14 O3         -1.0201    4.1422    5.5174 O.2       1 <0>        -0.2579
     15 C9          1.1583    4.2274    6.3616 C.ar      1 <0>        -0.1458
     16 C10         2.4805    3.7963    6.2335 C.ar      1 <0>        -0.0938
     17 C11         3.4425    4.2645    7.1040 C.ar      1 <0>        -0.1439
     18 C12         3.0977    5.1499    8.1102 C.ar      1 <0>        -0.1005
     19 C13         1.7884    5.5767    8.2464 C.ar      1 <0>        -0.1413
     20 C14         0.8175    5.1213    7.3790 C.ar      1 <0>        -0.0660
     21 C15         0.8775    4.0832    2.3487 C.ar      1 <0>        -0.1204
     22 C16        -0.2881    3.8991    1.6282 C.ar      1 <0>        -0.0780
     23 C17        -0.7755    4.9152    0.8292 C.ar      1 <0>        -0.1532
     24 C18        -0.0882    6.1172    0.7414 C.ar      1 <0>         0.0808
     25 C19         1.0841    6.2974    1.4610 C.ar      1 <0>        -0.1587
     26 C20         1.5642    5.2802    2.2629 C.ar      1 <0>        -0.1037
     27 O4         -0.5628    7.1165   -0.0479 O.3       1 <0>        -0.2897
     28 O5          0.1565    0.9975    0.0376 O.3       1 <0>        -0.3402
     29 H3          1.5358    1.7655   -2.1094 H         1 <0>         0.0952
     30 H4          3.0468    2.1245   -1.2398 H         1 <0>         0.0793
     31 H5          2.4133    0.4614   -1.2743 H         1 <0>         0.0770
     32 H6          2.4648    0.3900    1.2226 H         1 <0>         0.1100
     33 H7          3.0983    2.0531    1.2572 H         1 <0>         0.0972
     34 H8         -0.9878   -0.0572    4.8843 H         1 <0>         0.2522
     35 H9          2.7498    3.1014    5.4519 H         1 <0>         0.1318
     36 H10         4.4663    3.9357    7.0031 H         1 <0>         0.1317
     37 H11         3.8540    5.5096    8.7921 H         1 <0>         0.1317
     38 H12         1.5262    6.2683    9.0334 H         1 <0>         0.1362
     39 H13        -0.2039    5.4555    7.4862 H         1 <0>         0.1545
     40 H14        -0.8204    2.9616    1.6934 H         1 <0>         0.1562
     41 H15        -1.6883    4.7725    0.2700 H         1 <0>         0.1480
     42 H16         1.6207    7.2323    1.3946 H         1 <0>         0.1419
     43 H17         2.4770    5.4198    2.8231 H         1 <0>         0.1316
     44 H18        -0.2339    7.0898   -0.9568 H         1 <0>         0.2276
     45 H19         0.3224    0.0454    0.0069 H         1 <0>         0.2192
@<TRIPOS>BOND
     1    1    2 1
     2    1   29 1
     3    1   30 1
     4    1   31 1
     5    2    3 1
     6    2    4 1
     7    2   28 1
     8    4    5 1
     9    4   32 1
    10    4   33 1
    11    5   10 am
    12    5    6 1
    13    6    7 1
    14    6    8 1
    15    6   21 1
    16    8    9 2
    17    8   13 1
    18    9   10 1
    19    9   12 1
    20   10   11 2
    21   12   34 1
    22   13   14 2
    23   13   15 1
    24   15   20 ar
    25   15   16 ar
    26   16   17 ar
    27   16   35 1
    28   17   18 ar
    29   17   36 1
    30   18   19 ar
    31   18   37 1
    32   19   20 ar
    33   19   38 1
    34   20   39 1
    35   21   26 ar
    36   21   22 ar
    37   22   23 ar
    38   22   40 1
    39   23   24 ar
    40   23   41 1
    41   24   25 ar
    42   24   27 1
    43   25   26 ar
    44   25   42 1
    45   26   43 1
    46   27   44 1
    47   28   45 1
@<TRIPOS>MOLECULE
ZINC01438428
   45    47     0     0     0
SMALL
USER_CHARGES

@<TRIPOS>ATOM
      1 C1          2.1421    1.5165   -1.2385 C.3       1 <0>        -0.2482
      2 C2          1.3425    1.7946    0.0360 C.3       1 <0>         0.0138
      3 H1          1.0712    2.8497    0.0717 H         1 <0>         0.1293
      4 C3          2.1936    1.4451    1.2584 C.3       1 <0>        -0.0154
      5 N1          1.4280    1.7114    2.4787 N.am      1 <0>        -0.3401
      6 C4          1.4035    2.9752    3.2243 C.3       1 <0>         0.1076
      7 H2          2.4045    3.2204    3.5791 H         1 <0>         0.1143
      8 C5          0.4735    2.7561    4.3947 C.3       1 <0>        -0.2774
      9 C6          0.0309    1.4798    4.3083 C.2       1 <0>         0.1971
     10 C7          0.6275    0.8387    3.1173 C.2       1 <0>         0.2928
     11 O1          0.4246   -0.3067    2.7668 O.2       1 <0>        -0.2955
     12 O2         -0.8221    0.8855    5.1739 O.2       1 <0>        -0.2753
     13 C8          0.1229    3.7350    5.4280 C.2       1 <0>         0.3350
     14 O3         -1.0201    4.1422    5.5174 O.2       1 <0>        -0.2620
     15 C9          1.1583    4.2274    6.3616 C.ar      1 <0>        -0.1577
     16 C10         2.4805    3.7963    6.2335 C.ar      1 <0>        -0.0861
     17 C11         3.4425    4.2645    7.1040 C.ar      1 <0>        -0.1434
     18 C12         3.0977    5.1499    8.1102 C.ar      1 <0>        -0.0932
     19 C13         1.7884    5.5767    8.2464 C.ar      1 <0>        -0.1415
     20 C14         0.8175    5.1213    7.3790 C.ar      1 <0>        -0.0605
     21 C15         0.8775    4.0832    2.3487 C.ar      1 <0>        -0.1459
     22 C16        -0.2881    3.8991    1.6282 C.ar      1 <0>        -0.0900
     23 C17        -0.7755    4.9152    0.8292 C.ar      1 <0>        -0.1496
     24 C18        -0.0882    6.1172    0.7414 C.ar      1 <0>         0.0869
     25 C19         1.0841    6.2974    1.4610 C.ar      1 <0>        -0.1570
     26 C20         1.5642    5.2802    2.2629 C.ar      1 <0>        -0.0968
     27 O4         -0.5628    7.1165   -0.0479 O.3       1 <0>        -0.2885
     28 O5          0.1565    0.9975    0.0376 O.3       1 <0>        -0.3414
     29 H3          1.5358    1.7655   -2.1094 H         1 <0>         0.0958
     30 H4          3.0468    2.1245   -1.2398 H         1 <0>         0.0793
     31 H5          2.4133    0.4614   -1.2743 H         1 <0>         0.0788
     32 H6          2.4648    0.3900    1.2226 H         1 <0>         0.1133
     33 H7          3.0983    2.0531    1.2572 H         1 <0>         0.0971
     34 H8         -0.4597    2.9978    4.1287 H         1 <0>         0.1887
     35 H9          2.7498    3.1014    5.4519 H         1 <0>         0.1334
     36 H10         4.4663    3.9357    7.0031 H         1 <0>         0.1348
     37 H11         3.8540    5.5096    8.7921 H         1 <0>         0.1343
     38 H12         1.5262    6.2683    9.0334 H         1 <0>         0.1388
     39 H13        -0.2039    5.4555    7.4862 H         1 <0>         0.1549
     40 H14        -0.8204    2.9616    1.6934 H         1 <0>         0.1547
     41 H15        -1.6883    4.7725    0.2700 H         1 <0>         0.1517
     42 H16         1.6207    7.2323    1.3946 H         1 <0>         0.1452
     43 H17         2.4770    5.4198    2.8231 H         1 <0>         0.1346
     44 H18        -0.2339    7.0898   -0.9568 H         1 <0>         0.2313
     45 H19         0.3224    0.0454    0.0069 H         1 <0>         0.2219
@<TRIPOS>BOND
     1    1    2 1
     2    1   29 1
     3    1   30 1
     4    1   31 1
     5    2    3 1
     6    2    4 1
     7    2   28 1
     8    4    5 1
     9    4   32 1
    10    4   33 1
    11    5   10 am
    12    5    6 1
    13    6    7 1
    14    6   21 1
    15    6    8 1
    16    8   34 1
    17    8    9 1
    18    8   13 1
    19    9   10 1
    20    9   12 2
    21   10   11 2
    22   13   15 1
    23   13   14 2
    24   15   20 ar
    25   15   16 ar
    26   16   17 ar
    27   16   35 1
    28   17   18 ar
    29   17   36 1
    30   18   19 ar
    31   18   37 1
    32   19   20 ar
    33   19   38 1
    34   20   39 1
    35   21   26 ar
    36   21   22 ar
    37   22   23 ar
    38   22   40 1
    39   23   24 ar
    40   23   41 1
    41   24   25 ar
    42   24   27 1
    43   25   26 ar
    44   25   42 1
    45   26   43 1
    46   27   44 1
    47   28   45 1
@<TRIPOS>MOLECULE
ZINC01438428
   45    47     0     0     0
SMALL
USER_CHARGES

@<TRIPOS>ATOM
      1 C1          2.1573    1.5174   -1.2342 C.3       1 <0>        -0.2488
      2 C2          1.3543    1.7968    0.0379 C.3       1 <0>         0.0140
      3 H1          1.0868    2.8529    0.0740 H         1 <0>         0.1263
      4 C3          2.1998    1.4426    1.2628 C.3       1 <0>        -0.0158
      5 N1          1.4309    1.7103    2.4807 N.am      1 <0>        -0.3451
      6 C4          1.4035    2.9752    3.2243 C.3       1 <0>         0.1694
      7 H2          2.4045    3.2204    3.5791 H         1 <0>         0.0824
      8 C5          0.4735    2.7561    4.3947 C.2       1 <0>        -0.5746
      9 C6          0.0265    1.4816    4.3051 C.2       1 <0>         0.2295
     10 C7          0.6249    0.8397    3.1154 C.2       1 <0>         0.3090
     11 O1          0.4190   -0.3045    2.7628 O.2       1 <0>        -0.3239
     12 O2         -0.8318    0.8894    5.1670 O.2       1 <0>        -0.4119
     13 C8          0.1229    3.7350    5.4280 C.2       1 <0>         0.4084
     14 O3         -1.0201    4.1423    5.5174 O.3       1 <0>        -0.1270
     15 C9          1.1583    4.2274    6.3616 C.ar      1 <0>        -0.1322
     16 C10         2.4805    3.7963    6.2335 C.ar      1 <0>        -0.0445
     17 C11         3.4425    4.2645    7.1040 C.ar      1 <0>        -0.1471
     18 C12         3.0977    5.1499    8.1102 C.ar      1 <0>        -0.0741
     19 C13         1.7884    5.5767    8.2464 C.ar      1 <0>        -0.1441
     20 C14         0.8175    5.1213    7.3790 C.ar      1 <0>        -0.0654
     21 C15         0.8775    4.0832    2.3487 C.ar      1 <0>        -0.1222
     22 C16        -0.2881    3.8991    1.6282 C.ar      1 <0>        -0.0928
     23 C17        -0.7755    4.9152    0.8292 C.ar      1 <0>        -0.1581
     24 C18        -0.0882    6.1172    0.7414 C.ar      1 <0>         0.0722
     25 C19         1.0841    6.2974    1.4610 C.ar      1 <0>        -0.1596
     26 C20         1.5642    5.2802    2.2629 C.ar      1 <0>        -0.1163
     27 O4         -0.5628    7.1165   -0.0479 O.3       1 <0>        -0.2923
     28 O5          0.1653    1.0042    0.0343 O.3       1 <0>        -0.3412
     29 H3          1.5550    1.7697   -2.1069 H         1 <0>         0.0914
     30 H4          3.0643    2.1220   -1.2315 H         1 <0>         0.0768
     31 H5          2.4247    0.4613   -1.2703 H         1 <0>         0.0774
     32 H6          2.4672    0.3866    1.2266 H         1 <0>         0.1094
     33 H7          3.1067    2.0473    1.2656 H         1 <0>         0.0892
     34 H8         -1.5842    3.7090    4.8144 H         1 <0>         0.3157
     35 H9          2.7498    3.1014    5.4519 H         1 <0>         0.1601
     36 H10         4.4663    3.9357    7.0031 H         1 <0>         0.1447
     37 H11         3.8540    5.5096    8.7921 H         1 <0>         0.1403
     38 H12         1.5262    6.2683    9.0334 H         1 <0>         0.1438
     39 H13        -0.2039    5.4555    7.4862 H         1 <0>         0.1482
     40 H14        -0.8204    2.9616    1.6934 H         1 <0>         0.1610
     41 H15        -1.6883    4.7725    0.2700 H         1 <0>         0.1470
     42 H16         1.6207    7.2323    1.3946 H         1 <0>         0.1404
     43 H17         2.4770    5.4198    2.8231 H         1 <0>         0.1300
     44 H18        -0.2339    7.0898   -0.9568 H         1 <0>         0.2292
     45 H19         0.3278    0.0515    0.0030 H         1 <0>         0.2212
@<TRIPOS>BOND
     1    1    2 1
     2    1   29 1
     3    1   30 1
     4    1   31 1
     5    2    3 1
     6    2    4 1
     7    2   28 1
     8    4    5 1
     9    4   32 1
    10    4   33 1
    11    5   10 am
    12    5    6 1
    13    6    7 1
    14    6   21 1
    15    6    8 1
    16    8    9 1
    17    8   13 2
    18    9   10 1
    19    9   12 2
    20   10   11 2
    21   13   15 1
    22   13   14 1
    23   14   34 1
    24   15   20 ar
    25   15   16 ar
    26   16   17 ar
    27   16   35 1
    28   17   18 ar
    29   17   36 1
    30   18   19 ar
    31   18   37 1
    32   19   20 ar
    33   19   38 1
    34   20   39 1
    35   21   26 ar
    36   21   22 ar
    37   22   23 ar
    38   22   40 1
    39   23   24 ar
    40   23   41 1
    41   24   25 ar
    42   24   27 1
    43   25   26 ar
    44   25   42 1
    45   26   43 1
    46   27   44 1
    47   28   45 1
@<TRIPOS>MOLECULE
ZINC01438429
   45    47     0     0     0
SMALL
USER_CHARGES

@<TRIPOS>ATOM
      1 C1          2.1367   -3.7640   -1.6267 C.3       1 <0>        -0.2476
      2 C2          1.8554   -2.2611   -1.5716 C.3       1 <0>         0.0184
      3 H1          0.9629   -2.0370   -2.1558 H         1 <0>         0.1363
      4 C3          1.6338   -1.8366   -0.1185 C.3       1 <0>        -0.0189
      5 N1          1.2473   -0.4242   -0.0759 N.am      1 <0>        -0.3267
      6 C4          2.1618    0.7185    0.0332 C.3       1 <0>         0.1169
      7 H2          2.8383    0.7400   -0.8212 H         1 <0>         0.1289
      8 C5          1.2930    1.9545    0.0391 C.2       1 <0>        -0.2242
      9 C6          0.0109    1.5313   -0.0583 C.2       1 <0>         0.0391
     10 C7         -0.0088    0.0548   -0.1291 C.2       1 <0>         0.3089
     11 O1         -1.0112   -0.6255   -0.2214 O.2       1 <0>        -0.3581
     12 O2         -1.0787    2.3323   -0.0913 O.3       1 <0>        -0.2113
     13 C8          1.7503    3.3441    0.1322 C.2       1 <0>         0.3423
     14 O3          1.4736    4.0112    1.1113 O.2       1 <0>        -0.2644
     15 C9          2.5477    3.9351   -0.9637 C.ar      1 <0>        -0.1505
     16 C10         2.7715    3.2118   -2.1372 C.ar      1 <0>        -0.0895
     17 C11         3.5110    3.7715   -3.1581 C.ar      1 <0>        -0.1422
     18 C12         4.0413    5.0419   -3.0165 C.ar      1 <0>        -0.1004
     19 C13         3.8282    5.7620   -1.8540 C.ar      1 <0>        -0.1437
     20 C14         3.0854    5.2168   -0.8277 C.ar      1 <0>        -0.0684
     21 C15         2.9495    0.6311    1.3150 C.ar      1 <0>        -0.1135
     22 C16         2.3070    0.3245    2.5003 C.ar      1 <0>        -0.0858
     23 C17         3.0277    0.2382    3.6757 C.ar      1 <0>        -0.1525
     24 C18         4.3953    0.4712    3.6680 C.ar      1 <0>         0.0811
     25 C19         5.0367    0.7843    2.4784 C.ar      1 <0>        -0.1550
     26 C20         4.3125    0.8633    1.3046 C.ar      1 <0>        -0.1032
     27 O4          5.1055    0.3933    4.8241 O.3       1 <0>        -0.2931
     28 O5          2.9697   -1.5478   -2.1116 O.3       1 <0>        -0.3472
     29 H3          1.2868   -4.3081   -1.2148 H         1 <0>         0.0877
     30 H4          2.2946   -4.0665   -2.6619 H         1 <0>         0.0958
     31 H5          3.0292   -3.9882   -1.0425 H         1 <0>         0.0742
     32 H6          2.5554   -1.9783    0.4460 H         1 <0>         0.0998
     33 H7          0.8418   -2.4434    0.3205 H         1 <0>         0.1191
     34 H8         -1.9029    1.7710   -0.1663 H         1 <0>         0.2517
     35 H9          2.3623    2.2183   -2.2470 H         1 <0>         0.1399
     36 H10         3.6808    3.2152   -4.0680 H         1 <0>         0.1351
     37 H11         4.6237    5.4736   -3.8170 H         1 <0>         0.1317
     38 H12         4.2449    6.7529   -1.7500 H         1 <0>         0.1352
     39 H13         2.9201    5.7796    0.0791 H         1 <0>         0.1519
     40 H14         1.2415    0.1482    2.5065 H         1 <0>         0.1415
     41 H15         2.5263   -0.0061    4.6005 H         1 <0>         0.1446
     42 H16         6.1013    0.9657    2.4698 H         1 <0>         0.1428
     43 H17         4.8113    1.1070    0.3782 H         1 <0>         0.1350
     44 H18         5.1653    1.2295    5.3061 H         1 <0>         0.2319
     45 H19         3.8001   -1.7001   -1.6400 H         1 <0>         0.2068
@<TRIPOS>BOND
     1    1    2 1
     2    1   29 1
     3    1   30 1
     4    1   31 1
     5    2    3 1
     6    2    4 1
     7    2   28 1
     8    4    5 1
     9    4   32 1
    10    4   33 1
    11    5   10 am
    12    5    6 1
    13    6    7 1
    14    6    8 1
    15    6   21 1
    16    8    9 2
    17    8   13 1
    18    9   10 1
    19    9   12 1
    20   10   11 2
    21   12   34 1
    22   13   14 2
    23   13   15 1
    24   15   20 ar
    25   15   16 ar
    26   16   17 ar
    27   16   35 1
    28   17   18 ar
    29   17   36 1
    30   18   19 ar
    31   18   37 1
    32   19   20 ar
    33   19   38 1
    34   20   39 1
    35   21   26 ar
    36   21   22 ar
    37   22   23 ar
    38   22   40 1
    39   23   24 ar
    40   23   41 1
    41   24   25 ar
    42   24   27 1
    43   25   26 ar
    44   25   42 1
    45   26   43 1
    46   27   44 1
    47   28   45 1
@<TRIPOS>MOLECULE
ZINC01438429
   45    47     0     0     0
SMALL
USER_CHARGES

@<TRIPOS>ATOM
      1 C1          2.1367   -3.7640   -1.6267 C.3       1 <0>        -0.2475
      2 C2          1.8554   -2.2611   -1.5716 C.3       1 <0>         0.0182
      3 H1          0.9629   -2.0370   -2.1558 H         1 <0>         0.1388
      4 C3          1.6338   -1.8366   -0.1185 C.3       1 <0>        -0.0185
      5 N1          1.2473   -0.4242   -0.0759 N.am      1 <0>        -0.3366
      6 C4          2.1618    0.7185    0.0332 C.3       1 <0>         0.1041
      7 H2          2.8383    0.7400   -0.8212 H         1 <0>         0.1301
      8 C5          1.2930    1.9545    0.0391 C.3       1 <0>        -0.2727
      9 C6          0.0109    1.5313   -0.0583 C.2       1 <0>         0.1959
     10 C7         -0.0088    0.0548   -0.1291 C.2       1 <0>         0.2841
     11 O1         -1.0112   -0.6255   -0.2214 O.2       1 <0>        -0.2953
     12 O2         -1.0787    2.3323   -0.0913 O.2       1 <0>        -0.2758
     13 C8          1.7503    3.3441    0.1322 C.2       1 <0>         0.3359
     14 O3          1.4736    4.0112    1.1113 O.2       1 <0>        -0.2684
     15 C9          2.5477    3.9351   -0.9637 C.ar      1 <0>        -0.1624
     16 C10         2.7715    3.2118   -2.1372 C.ar      1 <0>        -0.0812
     17 C11         3.5110    3.7715   -3.1581 C.ar      1 <0>        -0.1416
     18 C12         4.0413    5.0419   -3.0165 C.ar      1 <0>        -0.0931
     19 C13         3.8282    5.7620   -1.8540 C.ar      1 <0>        -0.1441
     20 C14         3.0854    5.2168   -0.8277 C.ar      1 <0>        -0.0634
     21 C15         2.9495    0.6311    1.3150 C.ar      1 <0>        -0.1392
     22 C16         2.3070    0.3245    2.5003 C.ar      1 <0>        -0.0969
     23 C17         3.0277    0.2382    3.6757 C.ar      1 <0>        -0.1491
     24 C18         4.3953    0.4712    3.6680 C.ar      1 <0>         0.0871
     25 C19         5.0367    0.7843    2.4784 C.ar      1 <0>        -0.1536
     26 C20         4.3125    0.8633    1.3046 C.ar      1 <0>        -0.0969
     27 O4          5.1055    0.3933    4.8241 O.3       1 <0>        -0.2909
     28 O5          2.9697   -1.5478   -2.1116 O.3       1 <0>        -0.3472
     29 H3          1.2868   -4.3081   -1.2148 H         1 <0>         0.0888
     30 H4          2.2946   -4.0665   -2.6619 H         1 <0>         0.0970
     31 H5          3.0292   -3.9882   -1.0425 H         1 <0>         0.0736
     32 H6          2.5554   -1.9783    0.4460 H         1 <0>         0.0986
     33 H7          0.8418   -2.4434    0.3205 H         1 <0>         0.1211
     34 H8          1.0446    2.1828    0.9805 H         1 <0>         0.1834
     35 H9          2.3623    2.2183   -2.2470 H         1 <0>         0.1420
     36 H10         3.6808    3.2152   -4.0680 H         1 <0>         0.1383
     37 H11         4.6237    5.4736   -3.8170 H         1 <0>         0.1342
     38 H12         4.2449    6.7529   -1.7500 H         1 <0>         0.1376
     39 H13         2.9201    5.7796    0.0791 H         1 <0>         0.1520
     40 H14         1.2415    0.1482    2.5065 H         1 <0>         0.1408
     41 H15         2.5263   -0.0061    4.6005 H         1 <0>         0.1484
     42 H16         6.1013    0.9657    2.4698 H         1 <0>         0.1461
     43 H17         4.8113    1.1070    0.3782 H         1 <0>         0.1379
     44 H18         5.1653    1.2295    5.3061 H         1 <0>         0.2344
     45 H19         3.8001   -1.7001   -1.6400 H         1 <0>         0.2058
@<TRIPOS>BOND
     1    1    2 1
     2    1   29 1
     3    1   30 1
     4    1   31 1
     5    2    3 1
     6    2    4 1
     7    2   28 1
     8    4    5 1
     9    4   32 1
    10    4   33 1
    11    5   10 am
    12    5    6 1
    13    6    7 1
    14    6   21 1
    15    6    8 1
    16    8   34 1
    17    8    9 1
    18    8   13 1
    19    9   10 1
    20    9   12 2
    21   10   11 2
    22   13   15 1
    23   13   14 2
    24   15   20 ar
    25   15   16 ar
    26   16   17 ar
    27   16   35 1
    28   17   18 ar
    29   17   36 1
    30   18   19 ar
    31   18   37 1
    32   19   20 ar
    33   19   38 1
    34   20   39 1
    35   21   26 ar
    36   21   22 ar
    37   22   23 ar
    38   22   40 1
    39   23   24 ar
    40   23   41 1
    41   24   25 ar
    42   24   27 1
    43   25   26 ar
    44   25   42 1
    45   26   43 1
    46   27   44 1
    47   28   45 1
@<TRIPOS>MOLECULE
ZINC01438429
   45    47     0     0     0
SMALL
USER_CHARGES

@<TRIPOS>ATOM
      1 C1          2.1365   -3.7639   -1.6270 C.3       1 <0>        -0.2481
      2 C2          1.8552   -2.2610   -1.5718 C.3       1 <0>         0.0184
      3 H1          0.9627   -2.0369   -2.1559 H         1 <0>         0.1394
      4 C3          1.6338   -1.8366   -0.1187 C.3       1 <0>        -0.0184
      5 N1          1.2473   -0.4242   -0.0760 N.am      1 <0>        -0.3423
      6 C4          2.1618    0.7185    0.0332 C.3       1 <0>         0.1655
      7 H2          2.8383    0.7400   -0.8212 H         1 <0>         0.0998
      8 C5          1.2930    1.9545    0.0391 C.2       1 <0>        -0.5739
      9 C6          0.0109    1.5313   -0.0582 C.2       1 <0>         0.2277
     10 C7         -0.0088    0.0548   -0.1290 C.2       1 <0>         0.3002
     11 O1         -1.0112   -0.6255   -0.2212 O.2       1 <0>        -0.3240
     12 O2         -1.0787    2.3323   -0.0910 O.2       1 <0>        -0.4131
     13 C8          1.7503    3.3441    0.1322 C.2       1 <0>         0.4073
     14 O3          1.4737    4.0112    1.1113 O.3       1 <0>        -0.1297
     15 C9          2.5477    3.9351   -0.9637 C.ar      1 <0>        -0.1368
     16 C10         2.7715    3.2118   -2.1372 C.ar      1 <0>        -0.0380
     17 C11         3.5110    3.7715   -3.1581 C.ar      1 <0>        -0.1459
     18 C12         4.0413    5.0419   -3.0165 C.ar      1 <0>        -0.0734
     19 C13         3.8282    5.7620   -1.8540 C.ar      1 <0>        -0.1469
     20 C14         3.0854    5.2168   -0.8277 C.ar      1 <0>        -0.0681
     21 C15         2.9495    0.6311    1.3150 C.ar      1 <0>        -0.1145
     22 C16         2.3070    0.3245    2.5003 C.ar      1 <0>        -0.1006
     23 C17         3.0277    0.2382    3.6757 C.ar      1 <0>        -0.1565
     24 C18         4.3953    0.4712    3.6680 C.ar      1 <0>         0.0713
     25 C19         5.0367    0.7843    2.4784 C.ar      1 <0>        -0.1560
     26 C20         4.3125    0.8633    1.3046 C.ar      1 <0>        -0.1172
     27 O4          5.1055    0.3933    4.8241 O.3       1 <0>        -0.2903
     28 O5          2.9695   -1.5477   -2.1119 O.3       1 <0>        -0.3486
     29 H3          1.2867   -4.3080   -1.2150 H         1 <0>         0.0877
     30 H4          2.2943   -4.0664   -2.6623 H         1 <0>         0.0926
     31 H5          3.0291   -3.9881   -1.0429 H         1 <0>         0.0712
     32 H6          2.5555   -1.9783    0.4457 H         1 <0>         0.0905
     33 H7          0.8419   -2.4434    0.3204 H         1 <0>         0.1169
     34 H8          0.9345    3.4604    1.7484 H         1 <0>         0.3125
     35 H9          2.3623    2.2183   -2.2470 H         1 <0>         0.1687
     36 H10         3.6808    3.2152   -4.0680 H         1 <0>         0.1484
     37 H11         4.6237    5.4736   -3.8170 H         1 <0>         0.1403
     38 H12         4.2449    6.7529   -1.7500 H         1 <0>         0.1426
     39 H13         2.9201    5.7796    0.0791 H         1 <0>         0.1453
     40 H14         1.2415    0.1482    2.5065 H         1 <0>         0.1473
     41 H15         2.5263   -0.0061    4.6005 H         1 <0>         0.1440
     42 H16         6.1013    0.9657    2.4698 H         1 <0>         0.1412
     43 H17         4.8113    1.1070    0.3782 H         1 <0>         0.1332
     44 H18         5.1653    1.2295    5.3061 H         1 <0>         0.2275
     45 H19         3.7999   -1.7000   -1.6405 H         1 <0>         0.2027
@<TRIPOS>BOND
     1    1    2 1
     2    1   29 1
     3    1   30 1
     4    1   31 1
     5    2    3 1
     6    2    4 1
     7    2   28 1
     8    4    5 1
     9    4   32 1
    10    4   33 1
    11    5   10 am
    12    5    6 1
    13    6    7 1
    14    6   21 1
    15    6    8 1
    16    8    9 1
    17    8   13 2
    18    9   10 1
    19    9   12 2
    20   10   11 2
    21   13   15 1
    22   13   14 1
    23   14   34 1
    24   15   20 ar
    25   15   16 ar
    26   16   17 ar
    27   16   35 1
    28   17   18 ar
    29   17   36 1
    30   18   19 ar
    31   18   37 1
    32   19   20 ar
    33   19   38 1
    34   20   39 1
    35   21   26 ar
    36   21   22 ar
    37   22   23 ar
    38   22   40 1
    39   23   24 ar
    40   23   41 1
    41   24   25 ar
    42   24   27 1
    43   25   26 ar
    44   25   42 1
    45   26   43 1
    46   27   44 1
    47   28   45 1
@<TRIPOS>MOLECULE
ZINC01438430
   45    47     0     0     0
SMALL
USER_CHARGES

@<TRIPOS>ATOM
      1 C1          7.0404    6.5465   -1.6499 C.3       1 <0>        -0.2485
      2 C2          6.3158    5.1992   -1.6235 C.3       1 <0>         0.0209
      3 H1          5.3264    5.3100   -2.0673 H         1 <0>         0.1187
      4 C3          6.1752    4.7241   -0.1760 C.3       1 <0>        -0.0212
      5 N1          5.4814    3.4340   -0.1507 N.am      1 <0>        -0.3295
      6 C4          4.0301    3.2356   -0.0596 C.3       1 <0>         0.1195
      7 H2          3.5328    3.6911   -0.9159 H         1 <0>         0.1166
      8 C5          3.8080    1.7412   -0.0642 C.2       1 <0>        -0.2287
      9 C6          5.0292    1.1651   -0.1597 C.2       1 <0>         0.0461
     10 C7          6.0616    2.2217   -0.2128 C.2       1 <0>         0.3183
     11 O1          7.2573    2.0246   -0.2994 O.2       1 <0>        -0.3575
     12 O2          5.2670   -0.1660   -0.1998 O.3       1 <0>        -0.2113
     13 C8          2.5183    1.0488    0.0134 C.2       1 <0>         0.3422
     14 O3          2.2441    0.3814    0.9930 O.2       1 <0>        -0.2633
     15 C9          1.5506    1.1615   -1.0989 C.ar      1 <0>        -0.1489
     16 C10         0.3558    0.4392   -1.0650 C.ar      1 <0>        -0.0676
     17 C11        -0.5403    0.5453   -2.1081 C.ar      1 <0>        -0.1423
     18 C12        -0.2622    1.3729   -3.1819 C.ar      1 <0>        -0.1000
     19 C13         0.9197    2.0919   -3.2217 C.ar      1 <0>        -0.1425
     20 C14         1.8270    1.9910   -2.1878 C.ar      1 <0>        -0.0923
     21 C15         3.5082    3.8331    1.2217 C.ar      1 <0>        -0.1115
     22 C16         4.2836    3.7975    2.3659 C.ar      1 <0>        -0.0907
     23 C17         3.8097    4.3495    3.5403 C.ar      1 <0>        -0.1524
     24 C18         2.5498    4.9294    3.5739 C.ar      1 <0>         0.0807
     25 C19         1.7715    4.9587    2.4259 C.ar      1 <0>        -0.1517
     26 C20         2.2524    4.4108    1.2525 C.ar      1 <0>        -0.1019
     27 O4          2.0788    5.4673    4.7296 O.3       1 <0>        -0.2931
     28 O5          7.0675    4.2394   -2.3690 O.3       1 <0>        -0.3400
     29 H3          8.0298    6.4357   -1.2062 H         1 <0>         0.0786
     30 H4          7.1406    6.8850   -2.6812 H         1 <0>         0.0957
     31 H5          6.4671    7.2786   -1.0813 H         1 <0>         0.0817
     32 H6          5.6019    5.4562    0.3927 H         1 <0>         0.1061
     33 H7          7.1646    4.6133    0.2678 H         1 <0>         0.1115
     34 H8          6.2514   -0.3267   -0.2714 H         1 <0>         0.2525
     35 H9          0.1360   -0.2044   -0.2260 H         1 <0>         0.1529
     36 H10        -1.4628   -0.0158   -2.0851 H         1 <0>         0.1358
     37 H11        -0.9690    1.4553   -3.9943 H         1 <0>         0.1321
     38 H12         1.1322    2.7330   -4.0644 H         1 <0>         0.1338
     39 H13         2.7493    2.5521   -2.2204 H         1 <0>         0.1356
     40 H14         5.2622    3.3414    2.3405 H         1 <0>         0.1411
     41 H15         4.4177    4.3257    4.4326 H         1 <0>         0.1439
     42 H16         0.7905    5.4099    2.4494 H         1 <0>         0.1433
     43 H17         1.6468    4.4334    0.3585 H         1 <0>         0.1350
     44 H18         1.5897    4.8433    5.2832 H         1 <0>         0.2319
     45 H19         7.9606    4.0898   -2.0298 H         1 <0>         0.2204
@<TRIPOS>BOND
     1    1    2 1
     2    1   29 1
     3    1   30 1
     4    1   31 1
     5    2    3 1
     6    2    4 1
     7    2   28 1
     8    4    5 1
     9    4   32 1
    10    4   33 1
    11    5   10 am
    12    5    6 1
    13    6    7 1
    14    6    8 1
    15    6   21 1
    16    8    9 2
    17    8   13 1
    18    9   10 1
    19    9   12 1
    20   10   11 2
    21   12   34 1
    22   13   14 2
    23   13   15 1
    24   15   20 ar
    25   15   16 ar
    26   16   17 ar
    27   16   35 1
    28   17   18 ar
    29   17   36 1
    30   18   19 ar
    31   18   37 1
    32   19   20 ar
    33   19   38 1
    34   20   39 1
    35   21   26 ar
    36   21   22 ar
    37   22   23 ar
    38   22   40 1
    39   23   24 ar
    40   23   41 1
    41   24   25 ar
    42   24   27 1
    43   25   26 ar
    44   25   42 1
    45   26   43 1
    46   27   44 1
    47   28   45 1
@<TRIPOS>MOLECULE
ZINC01438430
   45    47     0     0     0
SMALL
USER_CHARGES

@<TRIPOS>ATOM
      1 C1          7.0404    6.5465   -1.6499 C.3       1 <0>        -0.2486
      2 C2          6.3158    5.1992   -1.6235 C.3       1 <0>         0.0212
      3 H1          5.3264    5.3100   -2.0673 H         1 <0>         0.1179
      4 C3          6.1752    4.7241   -0.1760 C.3       1 <0>        -0.0211
      5 N1          5.4814    3.4340   -0.1507 N.am      1 <0>        -0.3394
      6 C4          4.0301    3.2356   -0.0596 C.3       1 <0>         0.1065
      7 H2          3.5328    3.6911   -0.9159 H         1 <0>         0.1181
      8 C5          3.8080    1.7412   -0.0642 C.3       1 <0>        -0.2726
      9 C6          5.0292    1.1651   -0.1597 C.2       1 <0>         0.1983
     10 C7          6.0616    2.2217   -0.2128 C.2       1 <0>         0.2937
     11 O1          7.2573    2.0246   -0.2994 O.2       1 <0>        -0.2951
     12 O2          5.2670   -0.1660   -0.1998 O.2       1 <0>        -0.2757
     13 C8          2.5183    1.0488    0.0134 C.2       1 <0>         0.3353
     14 O3          2.2441    0.3814    0.9930 O.2       1 <0>        -0.2671
     15 C9          1.5506    1.1615   -1.0989 C.ar      1 <0>        -0.1607
     16 C10         0.3558    0.4392   -1.0650 C.ar      1 <0>        -0.0621
     17 C11        -0.5403    0.5453   -2.1081 C.ar      1 <0>        -0.1425
     18 C12        -0.2622    1.3729   -3.1819 C.ar      1 <0>        -0.0927
     19 C13         0.9197    2.0919   -3.2217 C.ar      1 <0>        -0.1419
     20 C14         1.8270    1.9910   -2.1878 C.ar      1 <0>        -0.0848
     21 C15         3.5082    3.8331    1.2217 C.ar      1 <0>        -0.1400
     22 C16         4.2836    3.7975    2.3659 C.ar      1 <0>        -0.0972
     23 C17         3.8097    4.3495    3.5403 C.ar      1 <0>        -0.1503
     24 C18         2.5498    4.9294    3.5739 C.ar      1 <0>         0.0874
     25 C19         1.7715    4.9587    2.4259 C.ar      1 <0>        -0.1512
     26 C20         2.2524    4.4108    1.2525 C.ar      1 <0>        -0.0969
     27 O4          2.0788    5.4673    4.7296 O.3       1 <0>        -0.2910
     28 O5          7.0675    4.2394   -2.3690 O.3       1 <0>        -0.3383
     29 H3          8.0298    6.4357   -1.2062 H         1 <0>         0.0795
     30 H4          7.1406    6.8850   -2.6812 H         1 <0>         0.0969
     31 H5          6.4671    7.2786   -1.0813 H         1 <0>         0.0810
     32 H6          5.6019    5.4562    0.3927 H         1 <0>         0.1049
     33 H7          7.1646    4.6133    0.2678 H         1 <0>         0.1133
     34 H8          3.8243    1.3989    0.8753 H         1 <0>         0.1839
     35 H9          0.1360   -0.2044   -0.2260 H         1 <0>         0.1534
     36 H10        -1.4628   -0.0158   -2.0851 H         1 <0>         0.1384
     37 H11        -0.9690    1.4553   -3.9943 H         1 <0>         0.1347
     38 H12         1.1322    2.7330   -4.0644 H         1 <0>         0.1369
     39 H13         2.7493    2.5521   -2.2204 H         1 <0>         0.1370
     40 H14         5.2622    3.3414    2.3405 H         1 <0>         0.1426
     41 H15         4.4177    4.3257    4.4326 H         1 <0>         0.1478
     42 H16         0.7905    5.4099    2.4494 H         1 <0>         0.1466
     43 H17         1.6468    4.4334    0.3585 H         1 <0>         0.1375
     44 H18         1.5897    4.8433    5.2832 H         1 <0>         0.2345
     45 H19         7.9606    4.0898   -2.0298 H         1 <0>         0.2218
@<TRIPOS>BOND
     1    1    2 1
     2    1   29 1
     3    1   30 1
     4    1   31 1
     5    2    3 1
     6    2    4 1
     7    2   28 1
     8    4    5 1
     9    4   32 1
    10    4   33 1
    11    5   10 am
    12    5    6 1
    13    6    7 1
    14    6   21 1
    15    6    8 1
    16    8   34 1
    17    8    9 1
    18    8   13 1
    19    9   10 1
    20    9   12 2
    21   10   11 2
    22   13   15 1
    23   13   14 2
    24   15   20 ar
    25   15   16 ar
    26   16   17 ar
    27   16   35 1
    28   17   18 ar
    29   17   36 1
    30   18   19 ar
    31   18   37 1
    32   19   20 ar
    33   19   38 1
    34   20   39 1
    35   21   26 ar
    36   21   22 ar
    37   22   23 ar
    38   22   40 1
    39   23   24 ar
    40   23   41 1
    41   24   25 ar
    42   24   27 1
    43   25   26 ar
    44   25   42 1
    45   26   43 1
    46   27   44 1
    47   28   45 1
@<TRIPOS>MOLECULE
ZINC01438430
   45    47     0     0     0
SMALL
USER_CHARGES

@<TRIPOS>ATOM
      1 C1          7.0431    6.5398   -1.6646 C.3       1 <0>        -0.2494
      2 C2          6.3188    5.1924   -1.6336 C.3       1 <0>         0.0221
      3 H1          5.3305    5.3008   -2.0805 H         1 <0>         0.1145
      4 C3          6.1746    4.7242   -0.1842 C.3       1 <0>        -0.0213
      5 N1          5.4811    3.4341   -0.1545 N.am      1 <0>        -0.3451
      6 C4          4.0301    3.2356   -0.0596 C.3       1 <0>         0.1686
      7 H2          3.5328    3.6911   -0.9159 H         1 <0>         0.0867
      8 C5          3.8080    1.7412   -0.0642 C.2       1 <0>        -0.5771
      9 C6          5.0296    1.1650   -0.1538 C.2       1 <0>         0.2320
     10 C7          6.0618    2.2216   -0.2093 C.2       1 <0>         0.3097
     11 O1          7.2578    2.0245   -0.2919 O.2       1 <0>        -0.3237
     12 O2          5.2679   -0.1662   -0.1869 O.2       1 <0>        -0.4120
     13 C8          2.5183    1.0488    0.0134 C.2       1 <0>         0.4092
     14 O3          2.2441    0.3814    0.9930 O.3       1 <0>        -0.1293
     15 C9          1.5506    1.1615   -1.0989 C.ar      1 <0>        -0.1344
     16 C10         0.3558    0.4392   -1.0650 C.ar      1 <0>        -0.0672
     17 C11        -0.5403    0.5453   -2.1081 C.ar      1 <0>        -0.1449
     18 C12        -0.2622    1.3729   -3.1819 C.ar      1 <0>        -0.0735
     19 C13         0.9197    2.0919   -3.2217 C.ar      1 <0>        -0.1456
     20 C14         1.8270    1.9910   -2.1878 C.ar      1 <0>        -0.0428
     21 C15         3.5082    3.8331    1.2217 C.ar      1 <0>        -0.1136
     22 C16         4.2836    3.7975    2.3659 C.ar      1 <0>        -0.1002
     23 C17         3.8097    4.3495    3.5403 C.ar      1 <0>        -0.1550
     24 C18         2.5498    4.9294    3.5739 C.ar      1 <0>         0.0708
     25 C19         1.7715    4.9587    2.4259 C.ar      1 <0>        -0.1544
     26 C20         2.2524    4.4108    1.2525 C.ar      1 <0>        -0.1199
     27 O4          2.0788    5.4673    4.7296 O.3       1 <0>        -0.2902
     28 O5          7.0727    4.2293   -2.3726 O.3       1 <0>        -0.3375
     29 H3          8.0314    6.4314   -1.2178 H         1 <0>         0.0782
     30 H4          7.1459    6.8734   -2.6972 H         1 <0>         0.0924
     31 H5          6.4681    7.2744   -1.1010 H         1 <0>         0.0783
     32 H6          5.5997    5.4589    0.3795 H         1 <0>         0.0963
     33 H7          7.1629    4.6158    0.2627 H         1 <0>         0.1090
     34 H8          3.0041    0.4142    1.6420 H         1 <0>         0.3135
     35 H9          0.1360   -0.2044   -0.2260 H         1 <0>         0.1467
     36 H10        -1.4628   -0.0158   -2.0851 H         1 <0>         0.1434
     37 H11        -0.9690    1.4553   -3.9943 H         1 <0>         0.1407
     38 H12         1.1322    2.7330   -4.0644 H         1 <0>         0.1468
     39 H13         2.7493    2.5521   -2.2204 H         1 <0>         0.1637
     40 H14         5.2622    3.3414    2.3405 H         1 <0>         0.1489
     41 H15         4.4177    4.3257    4.4326 H         1 <0>         0.1442
     42 H16         0.7905    5.4099    2.4494 H         1 <0>         0.1412
     43 H17         1.6468    4.4334    0.3585 H         1 <0>         0.1311
     44 H18         1.5897    4.8433    5.2832 H         1 <0>         0.2276
     45 H19         7.9650    4.0816   -2.0303 H         1 <0>         0.2212
@<TRIPOS>BOND
     1    1    2 1
     2    1   29 1
     3    1   30 1
     4    1   31 1
     5    2    3 1
     6    2    4 1
     7    2   28 1
     8    4    5 1
     9    4   32 1
    10    4   33 1
    11    5   10 am
    12    5    6 1
    13    6    7 1
    14    6   21 1
    15    6    8 1
    16    8    9 1
    17    8   13 2
    18    9   10 1
    19    9   12 2
    20   10   11 2
    21   13   15 1
    22   13   14 1
    23   14   34 1
    24   15   20 ar
    25   15   16 ar
    26   16   17 ar
    27   16   35 1
    28   17   18 ar
    29   17   36 1
    30   18   19 ar
    31   18   37 1
    32   19   20 ar
    33   19   38 1
    34   20   39 1
    35   21   26 ar
    36   21   22 ar
    37   22   23 ar
    38   22   40 1
    39   23   24 ar
    40   23   41 1
    41   24   25 ar
    42   24   27 1
    43   25   26 ar
    44   25   42 1
    45   26   43 1
    46   27   44 1
    47   28   45 1
@<TRIPOS>MOLECULE
ZINC01440225
   42    44     0     0     0
SMALL
USER_CHARGES

@<TRIPOS>ATOM
      1 C1          0.5001   -0.3581    0.2531 C.3       1 <0>        -0.2065
      2 C2          0.0036    1.0707    0.0233 C.3       1 <0>        -0.1243
      3 C3         -0.7061    1.5607    1.2591 C.ar      1 <0>        -0.0846
      4 C4         -2.0676    1.3619    1.3974 C.ar      1 <0>        -0.1085
      5 C5         -2.7201    1.8055    2.5310 C.ar      1 <0>        -0.1540
      6 C6         -2.0092    2.4608    3.5279 C.ar      1 <0>         0.0525
      7 C7         -0.6430    2.6635    3.3836 C.ar      1 <0>        -0.1225
      8 C8          0.0045    2.2132    2.2498 C.ar      1 <0>        -0.1082
      9 N1         -2.6681    2.9154    4.6756 N.am      1 <0>        -0.3172
     10 C9         -2.2559    4.0435    5.2870 C.2       1 <0>         0.3167
     11 O1         -1.3771    4.7161    4.7904 O.2       1 <0>        -0.3432
     12 C10        -2.8868    4.4694    6.5876 C.3       1 <0>        -0.3231
     13 S1         -2.1243    6.0109    7.1519 S.3       1 <0>         0.3525
     14 C11        -3.0244    6.2690    8.6444 C.2       1 <0>        -0.1854
     15 N2         -3.9716    5.4958    9.1304 N.2       1 <0>        -0.1747
     16 N3         -4.4194    5.9732   10.2352 N.2       1 <0>         0.0022
     17 N4         -3.8052    7.0662   10.5342 N.2       1 <0>        -0.0387
     18 N5         -2.8678    7.2995    9.5128 N.pl3     1 <0>        -0.1046
     19 C12        -1.9659    8.3699    9.4116 C.ar      1 <0>         0.0358
     20 C13        -0.7055    8.1668    8.8663 C.ar      1 <0>        -0.1177
     21 C14         0.1797    9.2213    8.7626 C.ar      1 <0>        -0.1369
     22 C15        -0.1864   10.4815    9.2129 C.ar      1 <0>         0.0826
     23 C16        -1.4441   10.6838    9.7627 C.ar      1 <0>        -0.1439
     24 C17        -2.3318    9.6311    9.8620 C.ar      1 <0>        -0.0921
     25 O2          0.6875   11.5182    9.1157 O.3       1 <0>        -0.2879
     26 H1          1.1894   -0.3719    1.0974 H         1 <0>         0.0770
     27 H2         -0.3487   -1.0079    0.4663 H         1 <0>         0.0760
     28 H3          1.0135   -0.7126   -0.6408 H         1 <0>         0.0736
     29 H4          0.8524    1.7204   -0.1900 H         1 <0>         0.0886
     30 H5         -0.6856    1.0844   -0.8210 H         1 <0>         0.0870
     31 H6         -2.6205    0.8559    0.6199 H         1 <0>         0.1336
     32 H7         -3.7827    1.6463    2.6403 H         1 <0>         0.1299
     33 H8         -0.0873    3.1725    4.1573 H         1 <0>         0.1574
     34 H9          1.0670    2.3706    2.1369 H         1 <0>         0.1359
     35 H10        -3.4215    2.4186    5.0311 H         1 <0>         0.2361
     36 H11        -3.9553    4.6257    6.4391 H         1 <0>         0.1416
     37 H12        -2.7339    3.6928    7.3370 H         1 <0>         0.1413
     38 H13        -0.4189    7.1849    8.5196 H         1 <0>         0.1558
     39 H14         1.1588    9.0642    8.3346 H         1 <0>         0.1533
     40 H15        -1.7288   11.6650   10.1128 H         1 <0>         0.1521
     41 H16        -3.3107    9.7886   10.2904 H         1 <0>         0.1585
     42 H17         1.2593   11.6243    9.8883 H         1 <0>         0.2339
@<TRIPOS>BOND
     1    1    2 1
     2    1   26 1
     3    1   27 1
     4    1   28 1
     5    2    3 1
     6    2   29 1
     7    2   30 1
     8    3    8 ar
     9    3    4 ar
    10    4    5 ar
    11    4   31 1
    12    5    6 ar
    13    5   32 1
    14    6    7 ar
    15    6    9 1
    16    7    8 ar
    17    7   33 1
    18    8   34 1
    19    9   10 am
    20    9   35 1
    21   10   11 2
    22   10   12 1
    23   12   13 1
    24   12   36 1
    25   12   37 1
    26   13   14 1
    27   14   18 1
    28   14   15 2
    29   15   16 1
    30   16   17 2
    31   17   18 1
    32   18   19 1
    33   19   24 ar
    34   19   20 ar
    35   20   21 ar
    36   20   38 1
    37   21   22 ar
    38   21   39 1
    39   22   23 ar
    40   22   25 1
    41   23   24 ar
    42   23   40 1
    43   24   41 1
    44   25   42 1
@<TRIPOS>MOLECULE
ZINC01442519
   41    43     0     0     0
SMALL
USER_CHARGES

@<TRIPOS>ATOM
      1 C1         -7.4855   -2.9275   -3.2345 C.3       1 <0>        -0.0458
      2 N1         -7.6535   -1.6430   -3.9186 N.pl3     1 <0>        -0.2868
      3 C2         -8.1480   -1.6064   -5.2971 C.3       1 <0>        -0.0533
      4 C3         -7.3458   -0.4675   -3.2646 C.ar      1 <0>         0.2858
      5 N2         -6.8963   -0.4997   -2.0119 N.ar      1 <0>        -0.3506
      6 C4         -6.6010    0.6254   -1.3850 C.ar      1 <0>         0.1332
      7 N3         -6.7553    1.7869   -1.9965 N.ar      1 <0>        -0.3542
      8 C5         -7.1993    1.8269   -3.2505 C.ar      1 <0>         0.2847
      9 N4         -7.4973    0.6977   -3.8843 N.ar      1 <0>        -0.3756
     10 N5         -7.3550    3.0398   -3.8900 N.pl3     1 <0>        -0.3639
     11 C6         -6.0930    0.5844    0.0332 C.3       1 <0>         0.0512
     12 N6         -4.6310    0.4909    0.0257 N.pl3     1 <0>        -0.1367
     13 C7         -3.7534    1.5387    0.0281 C.2       1 <0>        -0.1394
     14 C8         -2.5052    1.0023    0.0193 C.2       1 <0>        -0.0939
     15 N7         -2.6358   -0.3399    0.0067 N.2       1 <0>        -0.1616
     16 C9         -3.9026   -0.6471    0.0155 C.2       1 <0>        -0.0711
     17 C10        -1.2280    1.7574    0.0174 C.ar      1 <0>         0.0630
     18 C11        -0.0126    1.0758    0.0080 C.ar      1 <0>        -0.1147
     19 C12         1.1724    1.7834    0.0004 C.ar      1 <0>        -0.0710
     20 C13         1.1551    3.1665    0.0081 C.ar      1 <0>        -0.1208
     21 C14        -0.0484    3.8482    0.0228 C.ar      1 <0>        -0.0686
     22 C15        -1.2394    3.1509    0.0300 C.ar      1 <0>        -0.1409
     23 N8          2.4292    3.9199   -0.0000 N.pl3     1 <0>         0.5498
     24 O1          3.4902    3.3219   -0.0134 O.2       1 <0>        -0.3596
     25 O2          2.4166    5.1378    0.0067 O.3       1 <0>        -0.3628
     26 H1         -8.4091   -3.1870   -2.7169 H         1 <0>         0.0731
     27 H2         -7.2493   -3.7005   -3.9657 H         1 <0>         0.0809
     28 H3         -6.6733   -2.8507   -2.5117 H         1 <0>         0.1057
     29 H4         -8.2064   -0.5717   -5.6349 H         1 <0>         0.1199
     30 H5         -7.4669   -2.1614   -5.9423 H         1 <0>         0.0743
     31 H6         -9.1387   -2.0590   -5.3398 H         1 <0>         0.0732
     32 H7         -7.6821    3.0684   -4.8027 H         1 <0>         0.2428
     33 H8         -7.1372    3.8637   -3.4267 H         1 <0>         0.2432
     34 H9         -6.5100   -0.2838    0.5436 H         1 <0>         0.1294
     35 H10        -6.3963    1.4925    0.5542 H         1 <0>         0.1296
     36 H11        -4.0036    2.5893    0.0356 H         1 <0>         0.1834
     37 H12        -4.3049   -1.6493    0.0113 H         1 <0>         0.2102
     38 H13         0.0021   -0.0041    0.0020 H         1 <0>         0.1684
     39 H14         2.1149    1.2562   -0.0111 H         1 <0>         0.1647
     40 H15        -0.0561    4.9282    0.0284 H         1 <0>         0.1625
     41 H16        -2.1785    3.6842    0.0412 H         1 <0>         0.1425
@<TRIPOS>BOND
     1    1    2 1
     2    1   26 1
     3    1   27 1
     4    1   28 1
     5    2    3 1
     6    2    4 1
     7    3   29 1
     8    3   30 1
     9    3   31 1
    10    4    9 ar
    11    4    5 ar
    12    5    6 ar
    13    6    7 ar
    14    6   11 1
    15    7    8 ar
    16    8    9 ar
    17    8   10 1
    18   10   32 1
    19   10   33 1
    20   11   12 1
    21   11   34 1
    22   11   35 1
    23   12   16 1
    24   12   13 1
    25   13   14 2
    26   13   36 1
    27   14   15 1
    28   14   17 1
    29   15   16 2
    30   16   37 1
    31   17   22 ar
    32   17   18 ar
    33   18   19 ar
    34   18   38 1
    35   19   20 ar
    36   19   39 1
    37   20   21 ar
    38   20   23 1
    39   21   22 ar
    40   21   40 1
    41   22   41 1
    42   23   24 2
    43   23   25 1
@<TRIPOS>MOLECULE
ZINC01442519
   42    44     0     0     0
SMALL
USER_CHARGES

@<TRIPOS>ATOM
      1 C1         -7.4855   -2.9275   -3.2345 C.3       1 <0>        -0.0487
      2 N1         -7.6535   -1.6430   -3.9186 N.pl3     1 <0>        -0.2735
      3 C2         -8.1480   -1.6064   -5.2971 C.3       1 <0>        -0.0591
      4 C3         -7.3458   -0.4675   -3.2646 C.ar      1 <0>         0.2900
      5 N2         -6.8963   -0.4997   -2.0119 N.ar      1 <0>        -0.3621
      6 C4         -6.6010    0.6254   -1.3850 C.ar      1 <0>         0.1050
      7 N3         -6.7553    1.7869   -1.9965 N.ar      1 <0>        -0.3590
      8 C5         -7.1993    1.8269   -3.2505 C.ar      1 <0>         0.2926
      9 N4         -7.4973    0.6977   -3.8843 N.ar      1 <0>        -0.3534
     10 N5         -7.3550    3.0398   -3.8900 N.pl3     1 <0>        -0.3486
     11 C6         -6.0930    0.5844    0.0332 C.3       1 <0>         0.0463
     12 N6         -4.6310    0.4909    0.0257 N.pl3     1 <0>        -0.0667
     13 C7         -3.7534    1.5387    0.0281 C.2       1 <0>        -0.0738
     14 C8         -2.5052    1.0023    0.0193 C.2       1 <0>        -0.0309
     15 C9         -3.9026   -0.6471    0.0155 C.cat     1 <0>         0.0232
     16 C10        -1.2280    1.7574    0.0174 C.ar      1 <0>        -0.0221
     17 C11        -0.0126    1.0758    0.0080 C.ar      1 <0>        -0.1213
     18 C12         1.1724    1.7834    0.0004 C.ar      1 <0>        -0.0528
     19 C13         1.1551    3.1665    0.0081 C.ar      1 <0>        -0.0787
     20 C14        -0.0484    3.8482    0.0228 C.ar      1 <0>        -0.0539
     21 C15        -1.2394    3.1509    0.0300 C.ar      1 <0>        -0.1019
     22 N7          2.4292    3.9199   -0.0000 N.pl3     1 <0>         0.5411
     23 O1          3.4902    3.3219   -0.0134 O.2       1 <0>        -0.3254
     24 O2          2.4166    5.1378    0.0067 O.3       1 <0>        -0.3243
     25 H1         -8.4091   -3.1870   -2.7169 H         1 <0>         0.0862
     26 H2         -7.2493   -3.7005   -3.9657 H         1 <0>         0.0937
     27 H3         -6.6733   -2.8507   -2.5117 H         1 <0>         0.0884
     28 H4         -8.2064   -0.5717   -5.6349 H         1 <0>         0.1239
     29 H5         -7.4669   -2.1614   -5.9423 H         1 <0>         0.0833
     30 H6         -9.1387   -2.0590   -5.3398 H         1 <0>         0.0888
     31 H7         -7.6821    3.0684   -4.8027 H         1 <0>         0.2554
     32 H8         -7.1372    3.8637   -3.4267 H         1 <0>         0.2481
     33 H9         -6.5100   -0.2838    0.5436 H         1 <0>         0.1524
     34 H10        -6.3963    1.4925    0.5542 H         1 <0>         0.1612
     35 H11        -4.0036    2.5893    0.0356 H         1 <0>         0.2350
     36 H12        -4.3049   -1.6493    0.0113 H         1 <0>         0.2549
     37 H13         0.0021   -0.0041    0.0020 H         1 <0>         0.1343
     38 H14         2.1149    1.2562   -0.0111 H         1 <0>         0.1859
     39 H15        -0.0561    4.9282    0.0284 H         1 <0>         0.1874
     40 H16        -2.1785    3.6842    0.0412 H         1 <0>         0.1507
     41 N8         -2.6372   -0.3387    0.0067 N.pl3     1 <0>        -0.0887
     42 H17        -1.8619   -1.0117   -0.0075 H         1 <0>         0.3174
@<TRIPOS>BOND
     1    1    2 1
     2    1   25 1
     3    1   26 1
     4    1   27 1
     5    2    3 1
     6    2    4 1
     7    3   28 1
     8    3   29 1
     9    3   30 1
    10    4    9 ar
    11    4    5 ar
    12    5    6 ar
    13    6    7 ar
    14    6   11 1
    15    7    8 ar
    16    8    9 ar
    17    8   10 1
    18   10   31 1
    19   10   32 1
    20   11   12 1
    21   11   33 1
    22   11   34 1
    23   12   15 1
    24   12   13 1
    25   13   14 2
    26   13   35 1
    27   14   16 1
    28   14   41 1
    29   15   36 1
    30   15   41 2
    31   16   21 ar
    32   16   17 ar
    33   17   18 ar
    34   17   37 1
    35   18   19 ar
    36   18   38 1
    37   19   20 ar
    38   19   22 1
    39   20   21 ar
    40   20   39 1
    41   21   40 1
    42   22   23 2
    43   22   24 1
    44   41   42 1
@<TRIPOS>MOLECULE
ZINC01445823
   44    46     0     0     0
SMALL
USER_CHARGES

@<TRIPOS>ATOM
      1 C1          0.0904    9.5576    1.6364 C.3       1 <0>        -0.2277
      2 C2          0.9272   10.0381    0.4489 C.3       1 <0>         0.0938
      3 C3          1.1816   11.5411    0.5792 C.3       1 <0>        -0.2199
      4 C4          0.1726    9.7594   -0.8526 C.3       1 <0>        -0.2279
      5 N1          2.2072    9.3256    0.4335 N.pl3     1 <0>        -0.3099
      6 C5          2.2301    7.9502    0.3227 C.ar      1 <0>         0.3074
      7 N2          1.0909    7.2716    0.2301 N.ar      1 <0>        -0.3775
      8 C6          1.1143    5.9471    0.1240 C.ar      1 <0>         0.2926
      9 N3          2.2770    5.3015    0.1156 N.ar      1 <0>        -0.3752
     10 C7          3.4141    5.9802    0.2030 C.ar      1 <0>         0.2973
     11 N4          3.3918    7.3033    0.3091 N.ar      1 <0>        -0.3709
     12 N5          4.6309    5.3039    0.1884 N.pl3     1 <0>        -0.0911
     13 C8          4.8096    3.9462    0.0902 C.2       1 <0>        -0.1542
     14 C9          6.1368    3.7258    0.1101 C.2       1 <0>        -0.1476
     15 N6          6.7578    4.9096    0.2267 N.2       1 <0>        -0.1621
     16 C10         5.8686    5.8625    0.2746 C.2       1 <0>        -0.0472
     17 N7         -0.0691    5.2407    0.0281 N.pl3     1 <0>        -0.2630
     18 C11        -0.0434    3.8615   -0.2012 C.ar      1 <0>         0.0724
     19 C12         0.9061    3.3155   -1.0556 C.ar      1 <0>        -0.0831
     20 C13         0.9284    1.9532   -1.2803 C.ar      1 <0>        -0.1216
     21 C14         0.0066    1.1326   -0.6560 C.ar      1 <0>        -0.0852
     22 C15        -0.9431    1.6735    0.1909 C.ar      1 <0>        -0.0924
     23 C16        -0.9673    3.0347    0.4244 C.ar      1 <0>        -0.1066
     24 N8         -1.9313    0.7923    0.8526 N.pl3     1 <0>         0.5493
     25 O1         -1.9077   -0.4087    0.6508 O.2       1 <0>        -0.3514
     26 O2         -2.7682    1.2680    1.5988 O.3       1 <0>        -0.3555
     27 H1          0.6280    9.7562    2.5636 H         1 <0>         0.0777
     28 H2         -0.8619   10.0877    1.6479 H         1 <0>         0.0813
     29 H3         -0.0908    8.4868    1.5436 H         1 <0>         0.1097
     30 H4          1.7777   11.8834   -0.2668 H         1 <0>         0.0816
     31 H5          0.2292   12.0712    0.5907 H         1 <0>         0.0956
     32 H6          1.7191   11.7396    1.5064 H         1 <0>         0.0821
     33 H7         -0.0086    8.6886   -0.9454 H         1 <0>         0.1097
     34 H8         -0.7797   10.2895   -0.8411 H         1 <0>         0.0814
     35 H9          0.7687   10.1017   -1.6985 H         1 <0>         0.0767
     36 H10         3.0386    9.8207    0.5010 H         1 <0>         0.2527
     37 H11         4.0340    3.1989    0.0096 H         1 <0>         0.1886
     38 H12         6.6192    2.7615    0.0478 H         1 <0>         0.1835
     39 H13         6.0793    6.9177    0.3671 H         1 <0>         0.2209
     40 H14        -0.9177    5.7014    0.1198 H         1 <0>         0.2649
     41 H15         1.6258    3.9558   -1.5440 H         1 <0>         0.1655
     42 H16         1.6663    1.5280   -1.9444 H         1 <0>         0.1513
     43 H17         0.0257    0.0676   -0.8339 H         1 <0>         0.1665
     44 H18        -1.7065    3.4561    1.0896 H         1 <0>         0.1676
@<TRIPOS>BOND
     1    1    2 1
     2    1   27 1
     3    1   28 1
     4    1   29 1
     5    2    3 1
     6    2    4 1
     7    2    5 1
     8    3   30 1
     9    3   31 1
    10    3   32 1
    11    4   33 1
    12    4   34 1
    13    4   35 1
    14    5    6 1
    15    5   36 1
    16    6   11 ar
    17    6    7 ar
    18    7    8 ar
    19    8    9 ar
    20    8   17 1
    21    9   10 ar
    22   10   11 ar
    23   10   12 1
    24   12   16 1
    25   12   13 1
    26   13   14 2
    27   13   37 1
    28   14   15 1
    29   14   38 1
    30   15   16 2
    31   16   39 1
    32   17   18 1
    33   17   40 1
    34   18   23 ar
    35   18   19 ar
    36   19   20 ar
    37   19   41 1
    38   20   21 ar
    39   20   42 1
    40   21   22 ar
    41   21   43 1
    42   22   23 ar
    43   22   24 1
    44   23   44 1
    45   24   25 2
    46   24   26 1
@<TRIPOS>MOLECULE
ZINC01445823
   45    47     0     0     0
SMALL
USER_CHARGES

@<TRIPOS>ATOM
      1 C1          0.0904    9.5576    1.6364 C.3       1 <0>        -0.2280
      2 C2          0.9272   10.0381    0.4489 C.3       1 <0>         0.0844
      3 C3          1.1816   11.5411    0.5792 C.3       1 <0>        -0.2204
      4 C4          0.1726    9.7594   -0.8526 C.3       1 <0>        -0.2282
      5 N1          2.2072    9.3256    0.4335 N.pl3     1 <0>        -0.2860
      6 C5          2.2301    7.9502    0.3227 C.ar      1 <0>         0.3158
      7 N2          1.0909    7.2716    0.2301 N.ar      1 <0>        -0.3377
      8 C6          1.1143    5.9471    0.1240 C.ar      1 <0>         0.3079
      9 N3          2.2770    5.3015    0.1156 N.ar      1 <0>        -0.3607
     10 C7          3.4141    5.9802    0.2030 C.ar      1 <0>         0.2520
     11 N4          3.3918    7.3033    0.3091 N.ar      1 <0>        -0.3759
     12 N5          4.6309    5.3039    0.1884 N.pl3     1 <0>        -0.0197
     13 C8          4.8096    3.9462    0.0902 C.2       1 <0>        -0.0494
     14 C9          6.1368    3.7258    0.1101 C.2       1 <0>        -0.1362
     15 C10         5.8686    5.8625    0.2746 C.cat     1 <0>         0.0588
     16 N6         -0.0691    5.2407    0.0281 N.pl3     1 <0>        -0.2420
     17 C11        -0.0434    3.8615   -0.2012 C.ar      1 <0>         0.0534
     18 C12         0.9061    3.3155   -1.0556 C.ar      1 <0>        -0.0987
     19 C13         0.9284    1.9532   -1.2803 C.ar      1 <0>        -0.1258
     20 C14         0.0066    1.1326   -0.6560 C.ar      1 <0>        -0.0729
     21 C15        -0.9431    1.6735    0.1909 C.ar      1 <0>        -0.0851
     22 C16        -0.9673    3.0347    0.4244 C.ar      1 <0>        -0.0926
     23 N7         -1.9313    0.7923    0.8526 N.pl3     1 <0>         0.5457
     24 O1         -1.9077   -0.4087    0.6508 O.2       1 <0>        -0.3338
     25 O2         -2.7682    1.2680    1.5988 O.3       1 <0>        -0.3395
     26 H1          0.6280    9.7562    2.5636 H         1 <0>         0.0818
     27 H2         -0.8619   10.0877    1.6479 H         1 <0>         0.0980
     28 H3         -0.0908    8.4868    1.5436 H         1 <0>         0.1019
     29 H4          1.7777   11.8834   -0.2668 H         1 <0>         0.0854
     30 H5          0.2292   12.0712    0.5907 H         1 <0>         0.1101
     31 H6          1.7191   11.7396    1.5064 H         1 <0>         0.0858
     32 H7         -0.0086    8.6886   -0.9454 H         1 <0>         0.1023
     33 H8         -0.7797   10.2895   -0.8411 H         1 <0>         0.0980
     34 H9          0.7687   10.1017   -1.6985 H         1 <0>         0.0810
     35 H10         3.0386    9.8207    0.5010 H         1 <0>         0.2555
     36 H11         4.0340    3.1989    0.0096 H         1 <0>         0.2446
     37 H12         6.6192    2.7615    0.0478 H         1 <0>         0.2329
     38 H13         6.0793    6.9177    0.3671 H         1 <0>         0.2678
     39 H14        -0.9177    5.7014    0.1198 H         1 <0>         0.2788
     40 H15         1.6258    3.9558   -1.5440 H         1 <0>         0.1497
     41 H16         1.6663    1.5280   -1.9444 H         1 <0>         0.1506
     42 H17         0.0257    0.0676   -0.8339 H         1 <0>         0.1765
     43 H18        -1.7065    3.4561    1.0896 H         1 <0>         0.1760
     44 N8          6.7574    4.9095    0.2267 N.pl3     1 <0>        -0.0864
     45 H19         7.7743    5.0442    0.2713 H         1 <0>         0.3246
@<TRIPOS>BOND
     1    1    2 1
     2    1   26 1
     3    1   27 1
     4    1   28 1
     5    2    3 1
     6    2    4 1
     7    2    5 1
     8    3   29 1
     9    3   30 1
    10    3   31 1
    11    4   32 1
    12    4   33 1
    13    4   34 1
    14    5    6 1
    15    5   35 1
    16    6   11 ar
    17    6    7 ar
    18    7    8 ar
    19    8    9 ar
    20    8   16 1
    21    9   10 ar
    22   10   11 ar
    23   10   12 1
    24   12   15 1
    25   12   13 1
    26   13   14 2
    27   13   36 1
    28   14   37 1
    29   14   44 1
    30   15   38 1
    31   15   44 2
    32   16   17 1
    33   16   39 1
    34   17   22 ar
    35   17   18 ar
    36   18   19 ar
    37   18   40 1
    38   19   20 ar
    39   19   41 1
    40   20   21 ar
    41   20   42 1
    42   21   22 ar
    43   21   23 1
    44   22   43 1
    45   23   24 2
    46   23   25 1
    47   44   45 1
@<TRIPOS>MOLECULE
ZINC01458801
   41    44     0     0     0
SMALL
USER_CHARGES

@<TRIPOS>ATOM
      1 C1         -2.3670    4.0940   -5.4210 C.3       1 <0>        -0.0663
      2 O1         -1.0951    4.2354   -4.7852 O.3       1 <0>        -0.1930
      3 C2         -0.8995    3.5382   -3.6339 C.ar      1 <0>         0.0725
      4 C3         -1.9108    2.7375   -3.1298 C.ar      1 <0>        -0.1909
      5 C4         -1.7231    2.0353   -1.9500 C.ar      1 <0>        -0.0834
      6 C5         -0.5320    2.1261   -1.2703 C.ar      1 <0>        -0.1063
      7 C6          0.5151    2.9063   -1.7836 C.ar      1 <0>        -0.1231
      8 C7          0.3162    3.6306   -2.9636 C.ar      1 <0>         0.1142
      9 O2          1.3055    4.4211   -3.4527 O.3       1 <0>        -0.2093
     10 C8          2.2267    3.8185   -4.3639 C.3       1 <0>        -0.0514
     11 C9          1.6685    2.7842   -0.8727 C.2       1 <0>         0.4051
     12 O3          2.6670    3.4781   -0.9070 O.2       1 <0>        -0.2923
     13 N1          1.4468    1.7917   -0.0021 N.am      1 <0>        -0.3087
     14 C10        -0.0189    1.5412    0.0105 C.3       1 <0>        -0.0014
     15 H1         -0.5125    1.9493    0.8925 H         1 <0>         0.1334
     16 C11         0.0021   -0.0041    0.0020 C.3       1 <0>        -0.1676
     17 C12         1.2336   -0.2629    0.8666 C.2       1 <0>        -0.0731
     18 N2          1.9870    0.8018    0.8283 N.2       1 <0>         0.0721
     19 C13         1.5211   -1.4993    1.6139 C.ar      1 <0>        -0.0656
     20 C14         0.6250   -2.5706    1.5690 C.ar      1 <0>        -0.0813
     21 C15         0.8979   -3.7253    2.2690 C.ar      1 <0>        -0.1701
     22 C16         2.0625   -3.8292    3.0206 C.ar      1 <0>         0.1016
     23 C17         2.9585   -2.7713    3.0716 C.ar      1 <0>        -0.1893
     24 C18         2.6980   -1.6082    2.3685 C.ar      1 <0>         0.1249
     25 O4          3.5767   -0.5737    2.4133 O.3       1 <0>        -0.2706
     26 O5          2.3242   -4.9710    3.7084 O.3       1 <0>        -0.2905
     27 H2         -2.5290    3.0479   -5.6810 H         1 <0>         0.0662
     28 H3         -3.1519    4.4252   -4.7411 H         1 <0>         0.0704
     29 H4         -2.3902    4.7011   -6.3260 H         1 <0>         0.1147
     30 H5         -2.8493    2.6597   -3.6585 H         1 <0>         0.1444
     31 H6         -2.5167    1.4135   -1.5627 H         1 <0>         0.1347
     32 H7          1.6869    3.4512   -5.2366 H         1 <0>         0.0594
     33 H8          2.9639    4.5578   -4.6772 H         1 <0>         0.1102
     34 H9          2.7321    2.9870   -3.8727 H         1 <0>         0.0681
     35 H10        -0.8971   -0.4141    0.4619 H         1 <0>         0.1039
     36 H11         0.1391   -0.3920   -1.0074 H         1 <0>         0.1210
     37 H12        -0.2810   -2.4932    0.9863 H         1 <0>         0.1380
     38 H13         0.2045   -4.5526    2.2339 H         1 <0>         0.1455
     39 H14         3.8621   -2.8572    3.6569 H         1 <0>         0.1567
     40 H15         3.4100    0.0532    3.1305 H         1 <0>         0.2423
     41 H16         2.8244   -5.6276    3.2047 H         1 <0>         0.2346
@<TRIPOS>BOND
     1    1    2 1
     2    1   27 1
     3    1   28 1
     4    1   29 1
     5    2    3 1
     6    3    8 ar
     7    3    4 ar
     8    4    5 ar
     9    4   30 1
    10    5    6 ar
    11    5   31 1
    12    6   14 1
    13    6    7 ar
    14    7    8 ar
    15    7   11 1
    16    8    9 1
    17    9   10 1
    18   10   32 1
    19   10   33 1
    20   10   34 1
    21   11   12 2
    22   11   13 am
    23   13   18 1
    24   13   14 1
    25   14   15 1
    26   14   16 1
    27   16   17 1
    28   16   35 1
    29   16   36 1
    30   17   18 2
    31   17   19 1
    32   19   24 ar
    33   19   20 ar
    34   20   21 ar
    35   20   37 1
    36   21   22 ar
    37   21   38 1
    38   22   23 ar
    39   22   26 1
    40   23   24 ar
    41   23   39 1
    42   24   25 1
    43   25   40 1
    44   26   41 1
@<TRIPOS>MOLECULE
ZINC01458802
   41    44     0     0     0
SMALL
USER_CHARGES

@<TRIPOS>ATOM
      1 C1          8.3731    9.0160    1.5532 C.3       1 <0>        -0.0663
      2 O1          8.6828    7.6227    1.6219 O.3       1 <0>        -0.1927
      3 C2          7.7848    6.7627    1.0710 C.ar      1 <0>         0.0722
      4 C3          6.6324    7.2517    0.4788 C.ar      1 <0>        -0.1901
      5 C4          5.7183    6.3822   -0.0946 C.ar      1 <0>        -0.0839
      6 C5          5.9473    5.0270   -0.0812 C.ar      1 <0>        -0.1053
      7 C6          7.0978    4.5125    0.5341 C.ar      1 <0>        -0.1227
      8 C7          8.0248    5.3926    1.1034 C.ar      1 <0>         0.1150
      9 O2          9.1536    4.9118    1.6844 O.3       1 <0>        -0.2117
     10 C8         10.3015    4.7626    0.8466 C.3       1 <0>        -0.0505
     11 C9          7.0531    3.0414    0.4409 C.2       1 <0>         0.4071
     12 O3          7.9729    2.2929    0.7115 O.2       1 <0>        -0.2942
     13 N1          5.8402    2.6470   -0.0006 N.am      1 <0>        -0.3090
     14 C10         5.2026    3.8416   -0.6147 C.3       1 <0>        -0.0046
     15 H1          5.2000    3.8079   -1.7042 H         1 <0>         0.1297
     16 C11         3.7873    3.6924   -0.0132 C.3       1 <0>        -0.1668
     17 C12         3.6506    2.1715   -0.0206 C.2       1 <0>        -0.0735
     18 N2          4.8499    1.6567   -0.0290 N.2       1 <0>         0.0742
     19 C13         2.3856    1.4169   -0.0131 C.ar      1 <0>        -0.0658
     20 C14         1.1640    2.0953    0.0022 C.ar      1 <0>        -0.0809
     21 C15        -0.0168    1.3858    0.0097 C.ar      1 <0>        -0.1705
     22 C16         0.0021   -0.0041    0.0020 C.ar      1 <0>         0.1010
     23 C17         1.2095   -0.6869   -0.0136 C.ar      1 <0>        -0.1881
     24 C18         2.4023    0.0147   -0.0212 C.ar      1 <0>         0.1244
     25 O4          3.5850   -0.6525   -0.0361 O.3       1 <0>        -0.2677
     26 O5         -1.1666   -0.6965    0.0094 O.3       1 <0>        -0.2879
     27 H2          7.4319    9.2049    2.0695 H         1 <0>         0.0699
     28 H3          9.1694    9.5891    2.0282 H         1 <0>         0.1148
     29 H4          8.2817    9.3169    0.5095 H         1 <0>         0.0666
     30 H5          6.4454    8.3153    0.4634 H         1 <0>         0.1444
     31 H6          4.8215    6.7712   -0.5538 H         1 <0>         0.1347
     32 H7         10.0722    4.0713    0.0357 H         1 <0>         0.0719
     33 H8         10.5763    5.7320    0.4307 H         1 <0>         0.0586
     34 H9         11.1318    4.3709    1.4342 H         1 <0>         0.1096
     35 H10         3.0359    4.1602   -0.6494 H         1 <0>         0.1022
     36 H11         3.7442    4.0885    1.0014 H         1 <0>         0.1244
     37 H12         1.1457    3.1752    0.0078 H         1 <0>         0.1382
     38 H13        -0.9603    1.9112    0.0170 H         1 <0>         0.1455
     39 H14         1.2186   -1.7669   -0.0202 H         1 <0>         0.1567
     40 H15         3.9192   -0.8409   -0.9237 H         1 <0>         0.2393
     41 H16        -1.5134   -0.8922   -0.8718 H         1 <0>         0.2318
@<TRIPOS>BOND
     1    1    2 1
     2    1   27 1
     3    1   28 1
     4    1   29 1
     5    2    3 1
     6    3    8 ar
     7    3    4 ar
     8    4    5 ar
     9    4   30 1
    10    5    6 ar
    11    5   31 1
    12    6   14 1
    13    6    7 ar
    14    7    8 ar
    15    7   11 1
    16    8    9 1
    17    9   10 1
    18   10   32 1
    19   10   33 1
    20   10   34 1
    21   11   12 2
    22   11   13 am
    23   13   18 1
    24   13   14 1
    25   14   15 1
    26   14   16 1
    27   16   17 1
    28   16   35 1
    29   16   36 1
    30   17   18 2
    31   17   19 1
    32   19   24 ar
    33   19   20 ar
    34   20   21 ar
    35   20   37 1
    36   21   22 ar
    37   21   38 1
    38   22   23 ar
    39   22   26 1
    40   23   24 ar
    41   23   39 1
    42   24   25 1
    43   25   40 1
    44   26   41 1
@<TRIPOS>MOLECULE
ZINC01464778
   41    42     0     0     0
SMALL
USER_CHARGES

@<TRIPOS>ATOM
      1 C1         -1.0125    3.0888   12.6289 C.3       1 <0>        -0.2427
      2 C2         -0.7875    2.5274   11.2485 C.2       1 <0>         0.3109
      3 O1         -0.7176    3.2732   10.2945 O.2       1 <0>        -0.3637
      4 N1         -0.6640    1.1967   11.0741 N.am      1 <0>        -0.2755
      5 C3         -0.6406    0.3047   12.2361 C.3       1 <0>        -0.0750
      6 C4         -0.5580    0.6664    9.7816 C.ar      1 <0>         0.0316
      7 C5         -0.5608   -0.7092    9.5929 C.ar      1 <0>        -0.1411
      8 C6         -0.4568   -1.2312    8.3187 C.ar      1 <0>        -0.1305
      9 C7         -0.3500   -0.3815    7.2273 C.ar      1 <0>         0.0681
     10 C8         -0.3419    0.9928    7.4157 C.ar      1 <0>        -0.2040
     11 C9         -0.4507    1.5162    8.6889 C.ar      1 <0>        -0.1312
     12 O2         -0.2476   -0.8961    5.9730 O.3       1 <0>        -0.1826
     13 C10        -0.1409    0.0367    4.8957 C.3       1 <0>        -0.0347
     14 C11        -0.0374   -0.7115    3.5917 C.2       1 <0>         0.2982
     15 O3         -0.0534   -1.9243    3.5854 O.2       1 <0>        -0.3232
     16 N2          0.0730   -0.0330    2.4324 N.am      1 <0>        -0.3207
     17 C12         0.0447   -0.7214    1.2123 C.ar      1 <0>         0.0446
     18 C13        -0.5833   -1.9553    1.1243 C.ar      1 <0>        -0.1263
     19 C14        -0.6096   -2.6326   -0.0800 C.ar      1 <0>        -0.1162
     20 C15        -0.0115   -2.0833   -1.1992 C.ar      1 <0>        -0.1358
     21 C16         0.6120   -0.8519   -1.1204 C.ar      1 <0>        -0.1328
     22 C17         0.6473   -0.1689    0.0845 C.ar      1 <0>         0.0285
     23 O4          1.2639    1.0404    0.1646 O.3       1 <0>        -0.2956
     24 H1         -0.9543    2.2844   13.3622 H         1 <0>         0.0861
     25 H2         -0.2483    3.8349   12.8466 H         1 <0>         0.1145
     26 H3         -1.9975    3.5530   12.6762 H         1 <0>         0.1134
     27 H4          0.3748    0.2449   12.6278 H         1 <0>         0.0805
     28 H5         -1.3051    0.6948   13.0070 H         1 <0>         0.0881
     29 H6         -0.9741   -0.6892   11.9379 H         1 <0>         0.0974
     30 H7         -0.6447   -1.3708   10.4424 H         1 <0>         0.1344
     31 H8         -0.4589   -2.3011    8.1718 H         1 <0>         0.1484
     32 H9         -0.2542    1.6537    6.5660 H         1 <0>         0.1324
     33 H10        -0.4485    2.5863    8.8350 H         1 <0>         0.2102
     34 H11         0.7489    0.6510    5.0338 H         1 <0>         0.0944
     35 H12        -1.0242    0.6752    4.8792 H         1 <0>         0.0980
     36 H13         0.1721    0.9319    2.4427 H         1 <0>         0.2408
     37 H14        -1.0518   -2.3863    1.9967 H         1 <0>         0.1757
     38 H15        -1.0987   -3.5931   -0.1473 H         1 <0>         0.1365
     39 H16        -0.0351   -2.6158   -2.1385 H         1 <0>         0.1327
     40 H17         1.0746   -0.4239   -1.9974 H         1 <0>         0.1411
     41 H18         2.2012    0.9893    0.3970 H         1 <0>         0.2252
@<TRIPOS>BOND
     1    1    2 1
     2    1   24 1
     3    1   25 1
     4    1   26 1
     5    2    3 2
     6    2    4 am
     7    4    5 1
     8    4    6 1
     9    5   27 1
    10    5   28 1
    11    5   29 1
    12    6   11 ar
    13    6    7 ar
    14    7    8 ar
    15    7   30 1
    16    8    9 ar
    17    8   31 1
    18    9   10 ar
    19    9   12 1
    20   10   11 ar
    21   10   32 1
    22   11   33 1
    23   12   13 1
    24   13   14 1
    25   13   34 1
    26   13   35 1
    27   14   15 2
    28   14   16 am
    29   16   17 1
    30   16   36 1
    31   17   22 ar
    32   17   18 ar
    33   18   19 ar
    34   18   37 1
    35   19   20 ar
    36   19   38 1
    37   20   21 ar
    38   20   39 1
    39   21   22 ar
    40   21   40 1
    41   22   23 1
    42   23   41 1
@<TRIPOS>MOLECULE
ZINC01464985
   40    42     0     0     0
SMALL
USER_CHARGES

@<TRIPOS>ATOM
      1 C1         -1.2973   -0.7570   -0.0935 C.3       1 <0>        -0.1671
      2 C2          0.0067   -0.0137    0.0411 C.2       1 <0>         0.0804
      3 N1          1.1407   -0.6452   -0.1287 N.2       1 <0>        -0.1416
      4 C3          2.3180    0.0517   -0.1314 C.ar      1 <0>        -0.0124
      5 C4          2.4867    1.1385   -0.9933 C.ar      1 <0>        -0.1389
      6 C5          3.6721    1.8415   -0.9890 C.ar      1 <0>        -0.1512
      7 C6          4.7034    1.4633   -0.1373 C.ar      1 <0>         0.0459
      8 C7          4.5416    0.3792    0.7175 C.ar      1 <0>        -0.1201
      9 C8          3.3570   -0.3250    0.7235 C.ar      1 <0>        -0.1026
     10 N2          5.9078    2.1761   -0.1401 N.am      1 <0>        -0.3310
     11 C9          7.0746    1.5285    0.0484 C.2       1 <0>         0.2980
     12 O1          7.0898    0.3187    0.1339 O.2       1 <0>        -0.3499
     13 C10         8.3604    2.3075    0.1531 C.3       1 <0>        -0.2416
     14 C11         0.0052    1.3683    0.3514 C.2       1 <0>        -0.2791
     15 C12         0.2940    1.9262    1.5900 C.2       1 <0>         0.1624
     16 C13         0.1856    3.3979    1.4976 C.ar      1 <0>        -0.0948
     17 C14         0.3722    4.4065    2.4356 C.ar      1 <0>        -0.1065
     18 C15         0.1937    5.7342    2.0705 C.ar      1 <0>        -0.1067
     19 C16        -0.1679    6.0607    0.7804 C.ar      1 <0>        -0.1208
     20 C17        -0.3581    5.0618   -0.1684 C.ar      1 <0>        -0.0621
     21 C18        -0.1838    3.7353    0.1822 C.ar      1 <0>        -0.1317
     22 C19        -0.3095    2.4656   -0.5832 C.2       1 <0>         0.3300
     23 O2         -0.6132    2.3538   -1.7539 O.2       1 <0>        -0.2539
     24 O3          0.6237    1.2359    2.6995 O.3       1 <0>        -0.2061
     25 H1         -1.6364   -0.7112   -1.1284 H         1 <0>         0.1041
     26 H2         -1.1536   -1.7980    0.1960 H         1 <0>         0.1021
     27 H3         -2.0449   -0.2996    0.5544 H         1 <0>         0.0844
     28 H4          1.6876    1.4299   -1.6587 H         1 <0>         0.1456
     29 H5          3.8015    2.6845   -1.6514 H         1 <0>         0.1285
     30 H6          5.3452    0.0887    1.3780 H         1 <0>         0.1567
     31 H7          3.2318   -1.1668    1.3885 H         1 <0>         0.1461
     32 H8          5.9027    3.1363   -0.2778 H         1 <0>         0.2282
     33 H9          8.3012    2.9947    0.9972 H         1 <0>         0.0933
     34 H10         9.1915    1.6185    0.3032 H         1 <0>         0.1185
     35 H11         8.5184    2.8729   -0.7653 H         1 <0>         0.0946
     36 H12         0.6561    4.1576    3.4475 H         1 <0>         0.1283
     37 H13         0.3393    6.5160    2.8013 H         1 <0>         0.1395
     38 H14        -0.3040    7.0963    0.5058 H         1 <0>         0.1415
     39 H15        -0.6415    5.3216   -1.1777 H         1 <0>         0.1508
     40 H16         0.7818    1.8731    3.4538 H         1 <0>         0.2392
@<TRIPOS>BOND
     1    1    2 1
     2    1   25 1
     3    1   26 1
     4    1   27 1
     5    2    3 2
     6    2   14 1
     7    3    4 1
     8    4    9 ar
     9    4    5 ar
    10    5    6 ar
    11    5   28 1
    12    6    7 ar
    13    6   29 1
    14    7    8 ar
    15    7   10 1
    16    8    9 ar
    17    8   30 1
    18    9   31 1
    19   10   11 am
    20   10   32 1
    21   11   12 2
    22   11   13 1
    23   13   33 1
    24   13   34 1
    25   13   35 1
    26   14   22 1
    27   14   15 2
    28   15   16 1
    29   15   24 1
    30   16   21 ar
    31   16   17 ar
    32   17   18 ar
    33   17   36 1
    34   18   19 ar
    35   18   37 1
    36   19   20 ar
    37   19   38 1
    38   20   21 ar
    39   20   39 1
    40   21   22 1
    41   22   23 2
    42   24   40 1
@<TRIPOS>MOLECULE
ZINC01468101
   46    47     0     0     0
SMALL
USER_CHARGES

@<TRIPOS>ATOM
      1 C1          2.0831    9.8992    2.2683 C.3       1 <0>        -0.1780
      2 C2          1.0585   10.5913    1.4068 C.ar      1 <0>        -0.0891
      3 C3          1.0414   11.9698    1.3254 C.ar      1 <0>        -0.1116
      4 C4          0.0979   12.6059    0.5395 C.ar      1 <0>        -0.1398
      5 C5         -0.8278   11.8645   -0.1715 C.ar      1 <0>        -0.1080
      6 C6         -0.8129   10.4854   -0.0988 C.ar      1 <0>        -0.1172
      7 C7          0.1334    9.8432    0.6897 C.ar      1 <0>         0.0135
      8 N1          0.1509    8.4487    0.7659 N.pl3     1 <0>        -0.2317
      9 C8          1.4356    7.9120    0.2973 C.3       1 <0>        -0.0981
     10 C9          1.4171    6.4082    0.3940 C.2       1 <0>         0.2908
     11 O1          0.4308    5.8396    0.8123 O.2       1 <0>        -0.2913
     12 N2          2.4965    5.6953    0.0158 N.am      1 <0>        -0.3137
     13 N3          2.4469    4.2951    0.0173 N.pl3     1 <0>        -0.0704
     14 C10         2.3730    3.6403   -1.1708 C.2       1 <0>         0.0548
     15 C11         2.3222    2.2970   -1.2436 C.2       1 <0>        -0.2628
     16 C12         2.3514    1.5289   -0.0521 C.2       1 <0>         0.3056
     17 O2          2.3115    0.3093   -0.0883 O.2       1 <0>        -0.3342
     18 C13         2.4262    2.2473    1.2287 C.2       1 <0>        -0.3469
     19 C14         2.4745    3.6441    1.1978 C.2       1 <0>         0.2908
     20 O3          2.5482    4.3405    2.3489 O.3       1 <0>        -0.2470
     21 C15         2.4546    1.5444    2.4577 C.2       1 <0>         0.2926
     22 O4          2.5166    2.1552    3.5050 O.2       1 <0>        -0.3197
     23 C16         2.4015    0.0384    2.4658 C.3       1 <0>        -0.2328
     24 C17         2.3477    4.4424   -2.4464 C.3       1 <0>        -0.1845
     25 C18        -1.8219    9.6782   -0.8743 C.3       1 <0>        -0.1755
     26 H1          2.9770    9.6969    1.6783 H         1 <0>         0.0686
     27 H2          2.3415   10.5400    3.1114 H         1 <0>         0.0874
     28 H3          1.6718    8.9600    2.6384 H         1 <0>         0.1051
     29 H4          1.7629   12.5519    1.8794 H         1 <0>         0.1327
     30 H5          0.0839   13.6843    0.4811 H         1 <0>         0.1314
     31 H6         -1.5631   12.3644   -0.7846 H         1 <0>         0.1324
     32 H7         -0.6181    8.0486    0.2496 H         1 <0>         0.1946
     33 H8          2.2415    8.3060    0.9163 H         1 <0>         0.1353
     34 H9          1.5962    8.2074   -0.7396 H         1 <0>         0.0781
     35 H10         3.3077    6.1515   -0.2574 H         1 <0>         0.2496
     36 H11         2.2636    1.8070   -2.2043 H         1 <0>         0.1708
     37 H12         3.4321    4.5213    2.6968 H         1 <0>         0.2629
     38 H13         3.1845   -0.3254    1.9613 H         1 <0>         0.1010
     39 H14         2.4333   -0.3208    3.4944 H         1 <0>         0.0882
     40 H15         1.4777   -0.2951    1.9929 H         1 <0>         0.1142
     41 H16         3.3676    4.5990   -2.7974 H         1 <0>         0.0957
     42 H17         1.7815    3.9013   -3.2046 H         1 <0>         0.1114
     43 H18         1.8755    5.4069   -2.2598 H         1 <0>         0.0902
     44 H19        -2.7085    9.5185   -0.2607 H         1 <0>         0.0967
     45 H20        -2.0993   10.2170   -1.7803 H         1 <0>         0.0867
     46 H21        -1.3876    8.7152   -1.1429 H         1 <0>         0.0709
@<TRIPOS>BOND
     1    1    2 1
     2    1   26 1
     3    1   27 1
     4    1   28 1
     5    2    7 ar
     6    2    3 ar
     7    3    4 ar
     8    3   29 1
     9    4    5 ar
    10    4   30 1
    11    5    6 ar
    12    5   31 1
    13    6    7 ar
    14    6   25 1
    15    7    8 1
    16    8    9 1
    17    8   32 1
    18    9   10 1
    19    9   33 1
    20    9   34 1
    21   10   11 2
    22   10   12 am
    23   12   13 1
    24   12   35 1
    25   13   19 1
    26   13   14 1
    27   14   15 2
    28   14   24 1
    29   15   16 1
    30   15   36 1
    31   16   17 2
    32   16   18 1
    33   18   19 2
    34   18   21 1
    35   19   20 1
    36   20   37 1
    37   21   22 2
    38   21   23 1
    39   23   38 1
    40   23   39 1
    41   23   40 1
    42   24   41 1
    43   24   42 1
    44   24   43 1
    45   25   44 1
    46   25   45 1
    47   25   46 1
@<TRIPOS>MOLECULE
ZINC01468985
   40    43     0     0     0
SMALL
USER_CHARGES

@<TRIPOS>ATOM
      1 C1         -0.9102    2.0965   -1.7294 C.ar      1 <0>        -0.1127
      2 C2         -1.0030    3.3953   -1.2728 C.ar      1 <0>        -0.1604
      3 C3          0.0171    3.9316   -0.4834 C.ar      1 <0>        -0.0832
      4 C4          1.1245    3.1469   -0.1555 C.ar      1 <0>        -0.1313
      5 C5          1.2038    1.8435   -0.6146 C.ar      1 <0>         0.0782
      6 C6          0.1845    1.3193   -1.3988 C.ar      1 <0>        -0.1417
      7 O1          2.2801    1.0763   -0.2982 O.3       1 <0>        -0.2892
      8 C7         -0.0749    5.3214    0.0012 C.2       1 <0>        -0.1108
      9 N1         -1.2070    5.9539   -0.0529 N.2       1 <0>         0.0240
     10 N2         -2.4108    5.2374   -0.0450 N.am      1 <0>        -0.3385
     11 C8         -3.5797    5.8815   -0.2331 C.2       1 <0>         0.3840
     12 O2         -3.5894    7.0852   -0.4097 O.2       1 <0>        -0.2973
     13 C9         -4.8439    5.1290   -0.2248 C.2       1 <0>        -0.1672
     14 C10        -6.1150    5.6444   -0.3966 C.2       1 <0>        -0.1440
     15 C11        -6.9790    4.5376   -0.3103 C.2       1 <0>        -0.0749
     16 N3         -6.2384    3.4709   -0.0943 N.2       1 <0>        -0.0670
     17 N4         -4.9939    3.7832   -0.0397 N.pl3     1 <0>        -0.1086
     18 H1         -4.2459    3.1378    0.1152 H         1 <0>         0.2826
     19 C12        -8.4580    4.5679   -0.4340 C.ar      1 <0>         0.0012
     20 C13        -9.1061    5.7553   -0.7672 C.ar      1 <0>        -0.1094
     21 C14       -10.4811    5.7828   -0.8821 C.ar      1 <0>        -0.1139
     22 C15       -11.2218    4.6306   -0.6665 C.ar      1 <0>         0.0083
     23 C16       -10.5783    3.4402   -0.3328 C.ar      1 <0>         0.0008
     24 C17        -9.1997    3.4078   -0.2226 C.ar      1 <0>        -0.0908
     25 O3        -11.5203    2.4646   -0.1752 O.3       1 <0>        -0.2066
     26 C18       -12.7075    2.9697   -0.8143 C.3       1 <0>         0.1068
     27 O4        -12.5665    4.3993   -0.7174 O.3       1 <0>        -0.2073
     28 H2         -1.6973    1.6842   -2.3433 H         1 <0>         0.1392
     29 H3         -1.8614    3.9983   -1.5295 H         1 <0>         0.1474
     30 H4          1.9168    3.5556    0.4541 H         1 <0>         0.1475
     31 H5          0.2492    0.3020   -1.7555 H         1 <0>         0.1460
     32 H6          3.0062    1.1360   -0.9340 H         1 <0>         0.2333
     33 H7          0.7996    5.8129    0.4012 H         1 <0>         0.1889
     34 H8         -2.4031    4.2777    0.0958 H         1 <0>         0.2159
     35 H9         -6.3865    6.6763   -0.5639 H         1 <0>         0.1820
     36 H10        -8.5323    6.6547   -0.9355 H         1 <0>         0.1443
     37 H11       -10.9815    6.7042   -1.1409 H         1 <0>         0.1464
     38 H12        -8.6993    2.4851    0.0315 H         1 <0>         0.1590
     39 H13       -12.7423    2.6583   -1.8583 H         1 <0>         0.0884
     40 H14       -13.5994    2.6361   -0.2841 H         1 <0>         0.1307
@<TRIPOS>BOND
     1    1    6 ar
     2    1    2 ar
     3    1   28 1
     4    2    3 ar
     5    2   29 1
     6    3    4 ar
     7    3    8 1
     8    4    5 ar
     9    4   30 1
    10    5    6 ar
    11    5    7 1
    12    6   31 1
    13    7   32 1
    14    8    9 2
    15    8   33 1
    16    9   10 1
    17   10   11 am
    18   10   34 1
    19   11   12 2
    20   11   13 1
    21   13   17 1
    22   13   14 2
    23   14   15 1
    24   14   35 1
    25   15   16 2
    26   15   19 1
    27   16   17 1
    28   17   18 1
    29   19   24 ar
    30   19   20 ar
    31   20   21 ar
    32   20   36 1
    33   21   22 ar
    34   21   37 1
    35   22   27 1
    36   22   23 ar
    37   23   24 ar
    38   23   25 1
    39   24   38 1
    40   25   26 1
    41   26   27 1
    42   26   39 1
    43   26   40 1
@<TRIPOS>MOLECULE
ZINC01468985
   40    43     0     0     0
SMALL
USER_CHARGES

@<TRIPOS>ATOM
      1 C1         -0.9102    2.0965   -1.7294 C.ar      1 <0>        -0.1094
      2 C2         -1.0030    3.3953   -1.2728 C.ar      1 <0>        -0.1465
      3 C3          0.0171    3.9316   -0.4834 C.ar      1 <0>        -0.0838
      4 C4          1.1245    3.1469   -0.1555 C.ar      1 <0>        -0.1331
      5 C5          1.2038    1.8435   -0.6146 C.ar      1 <0>         0.0726
      6 C6          0.1845    1.3193   -1.3988 C.ar      1 <0>        -0.1446
      7 O1          2.2801    1.0763   -0.2982 O.3       1 <0>        -0.2906
      8 C7         -0.0749    5.3214    0.0012 C.2       1 <0>        -0.1149
      9 N1         -1.2070    5.9539   -0.0529 N.2       1 <0>         0.0161
     10 N2         -2.4108    5.2374   -0.0450 N.am      1 <0>        -0.3256
     11 C8         -3.5797    5.8815   -0.2331 C.2       1 <0>         0.4019
     12 O2         -3.5894    7.0852   -0.4097 O.2       1 <0>        -0.3163
     13 C9         -4.8439    5.1290   -0.2248 C.2       1 <0>        -0.1541
     14 C10        -6.1153    5.6449   -0.3934 C.2       1 <0>        -0.1610
     15 C11        -6.9794    4.5383   -0.3052 C.2       1 <0>        -0.0869
     16 N3         -6.2379    3.4701   -0.0999 N.pl3     1 <0>        -0.0460
     17 N4         -4.9932    3.7819   -0.0489 N.2       1 <0>        -0.1161
     18 H1         -6.5955    2.5418    0.0024 H         1 <0>         0.2875
     19 C12        -8.4587    4.5691   -0.4253 C.ar      1 <0>        -0.0159
     20 C13        -9.1072    5.7568   -0.7566 C.ar      1 <0>        -0.0992
     21 C14       -10.4825    5.7848   -0.8681 C.ar      1 <0>        -0.1062
     22 C15       -11.2230    4.6328   -0.6510 C.ar      1 <0>         0.0109
     23 C16       -10.5791    3.4421   -0.3192 C.ar      1 <0>         0.0126
     24 C17        -9.2002    3.4092   -0.2124 C.ar      1 <0>        -0.1198
     25 O3        -11.5210    2.4667   -0.1596 O.3       1 <0>        -0.2068
     26 C18       -12.7096    2.9724   -0.7956 C.3       1 <0>         0.1070
     27 O4        -12.5679    4.4019   -0.6987 O.3       1 <0>        -0.2035
     28 H2         -1.6973    1.6842   -2.3433 H         1 <0>         0.1378
     29 H3         -1.8614    3.9983   -1.5295 H         1 <0>         0.1538
     30 H4          1.9168    3.5556    0.4541 H         1 <0>         0.1443
     31 H5          0.2492    0.3020   -1.7555 H         1 <0>         0.1419
     32 H6          3.0062    1.1360   -0.9340 H         1 <0>         0.2297
     33 H7          0.7996    5.8129    0.4012 H         1 <0>         0.1846
     34 H8         -2.4031    4.2777    0.0958 H         1 <0>         0.2390
     35 H9         -6.3870    6.6772   -0.5576 H         1 <0>         0.1808
     36 H10        -8.5335    6.6561   -0.9261 H         1 <0>         0.1520
     37 H11       -10.9832    6.7064   -1.1255 H         1 <0>         0.1510
     38 H12        -8.6995    2.4863    0.0402 H         1 <0>         0.1318
     39 H13       -12.7471    2.6613   -1.8396 H         1 <0>         0.0909
     40 H14       -13.6003    2.6389   -0.2634 H         1 <0>         0.1343
@<TRIPOS>BOND
     1    1    6 ar
     2    1    2 ar
     3    1   28 1
     4    2    3 ar
     5    2   29 1
     6    3    4 ar
     7    3    8 1
     8    4    5 ar
     9    4   30 1
    10    5    6 ar
    11    5    7 1
    12    6   31 1
    13    7   32 1
    14    8    9 2
    15    8   33 1
    16    9   10 1
    17   10   11 am
    18   10   34 1
    19   11   12 2
    20   11   13 1
    21   13   14 1
    22   13   17 2
    23   14   35 1
    24   14   15 2
    25   15   19 1
    26   15   16 1
    27   16   18 1
    28   16   17 1
    29   19   24 ar
    30   19   20 ar
    31   20   21 ar
    32   20   36 1
    33   21   22 ar
    34   21   37 1
    35   22   27 1
    36   22   23 ar
    37   23   24 ar
    38   23   25 1
    39   24   38 1
    40   25   26 1
    41   26   27 1
    42   26   39 1
    43   26   40 1
@<TRIPOS>MOLECULE
ZINC01468986
   40    43     0     0     0
SMALL
USER_CHARGES

@<TRIPOS>ATOM
      1 C1         -1.2207    1.7480    0.0173 C.ar      1 <0>        -0.1212
      2 C2         -1.2478    3.1275    0.0299 C.ar      1 <0>        -0.0954
      3 C3         -0.0514    3.8486    0.0223 C.ar      1 <0>        -0.0383
      4 C4          1.1677    3.1679    0.0075 C.ar      1 <0>        -0.1350
      5 C5          1.1822    1.7838    0.0004 C.ar      1 <0>         0.0651
      6 C6         -0.0126    1.0758    0.0080 C.ar      1 <0>        -0.1377
      7 O1          2.3665    1.1171   -0.0145 O.3       1 <0>        -0.2896
      8 C7         -0.0758    5.3232    0.0304 C.2       1 <0>        -0.1053
      9 N1         -1.2103    5.9534    0.0442 N.2       1 <0>         0.0117
     10 N2         -1.2335    7.3542    0.0520 N.am      1 <0>        -0.3331
     11 C8         -2.4116    8.0086    0.0663 C.2       1 <0>         0.3916
     12 O2         -3.4550    7.3829    0.0725 O.2       1 <0>        -0.2990
     13 C9         -2.4359    9.4796    0.0744 C.2       1 <0>        -0.1655
     14 C10        -3.5566   10.2888    0.0835 C.2       1 <0>        -0.1439
     15 C11        -3.0631   11.6062    0.0919 C.2       1 <0>        -0.0743
     16 N3         -1.7485   11.5383    0.0789 N.2       1 <0>        -0.0671
     17 N4         -1.3549   10.3159    0.0685 N.pl3     1 <0>        -0.1082
     18 H1         -0.3997   10.0200    0.0577 H         1 <0>         0.2810
     19 C12        -3.8770   12.8474    0.1071 C.ar      1 <0>         0.0010
     20 C13        -5.2631   12.7715    0.2255 C.ar      1 <0>        -0.1092
     21 C14        -6.0192   13.9259    0.2396 C.ar      1 <0>        -0.1139
     22 C15        -5.4034   15.1640    0.1366 C.ar      1 <0>         0.0085
     23 C16        -4.0171   15.2454    0.0179 C.ar      1 <0>         0.0007
     24 C17        -3.2557   14.0904    0.0087 C.ar      1 <0>        -0.0907
     25 O3         -3.6632   16.5613   -0.0666 O.3       1 <0>        -0.2067
     26 C18        -4.8041   17.2976    0.4121 C.3       1 <0>         0.1068
     27 O4         -5.9164   16.4292    0.1263 O.3       1 <0>        -0.2073
     28 H2         -2.1463    1.1914    0.0187 H         1 <0>         0.1398
     29 H3         -2.1933    3.6494    0.0410 H         1 <0>         0.1615
     30 H4          2.0962    3.7194    0.0019 H         1 <0>         0.1393
     31 H5          0.0021   -0.0041    0.0020 H         1 <0>         0.1421
     32 H6          2.7007    0.9290   -0.9022 H         1 <0>         0.2277
     33 H7          0.8504    5.8786    0.0249 H         1 <0>         0.1163
     34 H8         -0.4016    7.8530    0.0470 H         1 <0>         0.1974
     35 H9         -4.5904    9.9763    0.0857 H         1 <0>         0.1820
     36 H10        -5.7461   11.8089    0.3060 H         1 <0>         0.1442
     37 H11        -7.0936   13.8648    0.3315 H         1 <0>         0.1464
     38 H12        -2.1810   14.1520   -0.0787 H         1 <0>         0.1589
     39 H13        -4.7227   17.4754    1.4844 H         1 <0>         0.0887
     40 H14        -4.9055   18.2397   -0.1267 H         1 <0>         0.1307
@<TRIPOS>BOND
     1    1    6 ar
     2    1    2 ar
     3    1   28 1
     4    2    3 ar
     5    2   29 1
     6    3    4 ar
     7    3    8 1
     8    4    5 ar
     9    4   30 1
    10    5    6 ar
    11    5    7 1
    12    6   31 1
    13    7   32 1
    14    8    9 2
    15    8   33 1
    16    9   10 1
    17   10   11 am
    18   10   34 1
    19   11   12 2
    20   11   13 1
    21   13   17 1
    22   13   14 2
    23   14   15 1
    24   14   35 1
    25   15   16 2
    26   15   19 1
    27   16   17 1
    28   17   18 1
    29   19   24 ar
    30   19   20 ar
    31   20   21 ar
    32   20   36 1
    33   21   22 ar
    34   21   37 1
    35   22   27 1
    36   22   23 ar
    37   23   24 ar
    38   23   25 1
    39   24   38 1
    40   25   26 1
    41   26   27 1
    42   26   39 1
    43   26   40 1
@<TRIPOS>MOLECULE
ZINC01468986
   40    43     0     0     0
SMALL
USER_CHARGES

@<TRIPOS>ATOM
      1 C1         -1.2207    1.7480    0.0173 C.ar      1 <0>        -0.1220
      2 C2         -1.2478    3.1275    0.0299 C.ar      1 <0>        -0.0977
      3 C3         -0.0514    3.8486    0.0223 C.ar      1 <0>        -0.0327
      4 C4          1.1677    3.1679    0.0075 C.ar      1 <0>        -0.1367
      5 C5          1.1822    1.7838    0.0004 C.ar      1 <0>         0.0639
      6 C6         -0.0126    1.0758    0.0080 C.ar      1 <0>        -0.1415
      7 O1          2.3665    1.1171   -0.0145 O.3       1 <0>        -0.2906
      8 C7         -0.0758    5.3232    0.0304 C.2       1 <0>        -0.1131
      9 N1         -1.2103    5.9534    0.0442 N.2       1 <0>         0.0075
     10 N2         -1.2335    7.3542    0.0520 N.am      1 <0>        -0.3195
     11 C8         -2.4116    8.0086    0.0663 C.2       1 <0>         0.4097
     12 O2         -3.4550    7.3829    0.0725 O.2       1 <0>        -0.3181
     13 C9         -2.4359    9.4796    0.0744 C.2       1 <0>        -0.1521
     14 C10        -3.5566   10.2888    0.0813 C.2       1 <0>        -0.1611
     15 C11        -3.0631   11.6062    0.0885 C.2       1 <0>        -0.0862
     16 N3         -1.7485   11.5383    0.0838 N.pl3     1 <0>        -0.0460
     17 N4         -1.3549   10.3158    0.0766 N.2       1 <0>        -0.1168
     18 H1         -1.1389   12.3310    0.0857 H         1 <0>         0.2874
     19 C12        -3.8770   12.8474    0.1013 C.ar      1 <0>        -0.0160
     20 C13        -5.2632   12.7717    0.2184 C.ar      1 <0>        -0.0991
     21 C14        -6.0194   13.9261    0.2302 C.ar      1 <0>        -0.1062
     22 C15        -5.4034   15.1641    0.1262 C.ar      1 <0>         0.0110
     23 C16        -4.0170   15.2453    0.0088 C.ar      1 <0>         0.0125
     24 C17        -3.2556   14.0903    0.0019 C.ar      1 <0>        -0.1198
     25 O3         -3.6630   16.5611   -0.0770 O.3       1 <0>        -0.2069
     26 C18        -4.8044   17.2980    0.3996 C.3       1 <0>         0.1070
     27 O4         -5.9164   16.4293    0.1138 O.3       1 <0>        -0.2034
     28 H2         -2.1463    1.1914    0.0187 H         1 <0>         0.1378
     29 H3         -2.1933    3.6494    0.0410 H         1 <0>         0.1614
     30 H4          2.0962    3.7194    0.0019 H         1 <0>         0.1394
     31 H5          0.0021   -0.0041    0.0020 H         1 <0>         0.1401
     32 H6          2.7007    0.9290   -0.9022 H         1 <0>         0.2263
     33 H7          0.8504    5.8786    0.0249 H         1 <0>         0.1186
     34 H8         -0.4016    7.8530    0.0470 H         1 <0>         0.2225
     35 H9         -4.5904    9.9763    0.0812 H         1 <0>         0.1806
     36 H10        -5.7463   11.8092    0.2996 H         1 <0>         0.1520
     37 H11        -7.0938   13.8651    0.3211 H         1 <0>         0.1510
     38 H12        -2.1808   14.1518   -0.0845 H         1 <0>         0.1317
     39 H13        -4.7241   17.4772    1.4717 H         1 <0>         0.0912
     40 H14        -4.9053   18.2394   -0.1406 H         1 <0>         0.1342
@<TRIPOS>BOND
     1    1    6 ar
     2    1    2 ar
     3    1   28 1
     4    2    3 ar
     5    2   29 1
     6    3    4 ar
     7    3    8 1
     8    4    5 ar
     9    4   30 1
    10    5    6 ar
    11    5    7 1
    12    6   31 1
    13    7   32 1
    14    8    9 2
    15    8   33 1
    16    9   10 1
    17   10   11 am
    18   10   34 1
    19   11   12 2
    20   11   13 1
    21   13   14 1
    22   13   17 2
    23   14   35 1
    24   14   15 2
    25   15   19 1
    26   15   16 1
    27   16   18 1
    28   16   17 1
    29   19   24 ar
    30   19   20 ar
    31   20   21 ar
    32   20   36 1
    33   21   22 ar
    34   21   37 1
    35   22   27 1
    36   22   23 ar
    37   23   24 ar
    38   23   25 1
    39   24   38 1
    40   25   26 1
    41   26   27 1
    42   26   39 1
    43   26   40 1
@<TRIPOS>MOLECULE
ZINC01468998
   40    43     0     0     0
SMALL
USER_CHARGES

@<TRIPOS>ATOM
      1 C1         -0.0126    1.0758    0.0080 C.ar      1 <0>        -0.0939
      2 C2          1.1707    1.7821    0.0005 C.ar      1 <0>        -0.1609
      3 C3          1.1531    3.1709    0.0081 C.ar      1 <0>         0.0877
      4 C4         -0.0561    3.8543    0.0229 C.ar      1 <0>        -0.1604
      5 C5         -1.2443    3.1565    0.0310 C.ar      1 <0>        -0.0721
      6 C6         -1.2316    1.7591    0.0174 C.ar      1 <0>        -0.0631
      7 C7         -2.5000    1.0082    0.0193 C.2       1 <0>        -0.1032
      8 N1         -3.6313    1.6449    0.0281 N.2       1 <0>         0.0086
      9 N2         -4.8368    0.9312    0.0299 N.am      1 <0>        -0.3330
     10 C8         -6.0113    1.5922    0.0391 C.2       1 <0>         0.3914
     11 O1         -6.0246    2.8089    0.0458 O.2       1 <0>        -0.2994
     12 C9         -7.2774    0.8427    0.0409 C.2       1 <0>        -0.1652
     13 C10        -8.5535    1.3738    0.0554 C.2       1 <0>        -0.1441
     14 C11        -9.4176    0.2636    0.0476 C.2       1 <0>        -0.0743
     15 N3         -8.6714   -0.8209    0.0387 N.2       1 <0>        -0.0673
     16 N4         -7.4238   -0.5161    0.0346 N.pl3     1 <0>        -0.1084
     17 H1         -6.6715   -1.1749    0.0278 H         1 <0>         0.2809
     18 C12       -10.9013    0.3071    0.0540 C.ar      1 <0>         0.0011
     19 C13       -11.5640    1.5288   -0.0423 C.ar      1 <0>        -0.1092
     20 C14       -12.9434    1.5686   -0.0358 C.ar      1 <0>        -0.1138
     21 C15       -13.6743    0.3945    0.0656 C.ar      1 <0>         0.0084
     22 C16       -13.0162   -0.8303    0.1618 C.ar      1 <0>         0.0007
     23 C17       -11.6335   -0.8741    0.1507 C.ar      1 <0>        -0.0908
     24 O2        -13.9507   -1.8217    0.2496 O.3       1 <0>        -0.2067
     25 C18       -15.1823   -1.2303   -0.2049 C.3       1 <0>         0.1068
     26 O3        -15.0205    0.1689    0.0933 O.3       1 <0>        -0.2073
     27 O4          2.3220    3.8630    0.0007 O.3       1 <0>        -0.2915
     28 H2          0.0021   -0.0041    0.0020 H         1 <0>         0.1322
     29 H3          2.1132    1.2549   -0.0118 H         1 <0>         0.1432
     30 H4         -0.0650    4.9343    0.0285 H         1 <0>         0.1467
     31 H5         -2.1840    3.6887    0.0425 H         1 <0>         0.1631
     32 H6         -2.4883   -0.0718    0.0133 H         1 <0>         0.1150
     33 H7         -4.8263   -0.0388    0.0245 H         1 <0>         0.1969
     34 H8         -8.8285    2.4181    0.0676 H         1 <0>         0.1820
     35 H9        -10.9979    2.4451   -0.1218 H         1 <0>         0.1443
     36 H10       -13.4551    2.5167   -0.1102 H         1 <0>         0.1464
     37 H11       -11.1222   -1.8228    0.2207 H         1 <0>         0.1588
     38 H12       -15.3068   -1.3814   -1.2772 H         1 <0>         0.0885
     39 H13       -16.0300   -1.6429    0.3420 H         1 <0>         0.1307
     40 H14         2.6520    4.0681   -0.8848 H         1 <0>         0.2310
@<TRIPOS>BOND
     1    1    6 ar
     2    1    2 ar
     3    1   28 1
     4    2    3 ar
     5    2   29 1
     6    3    4 ar
     7    3   27 1
     8    4    5 ar
     9    4   30 1
    10    5    6 ar
    11    5   31 1
    12    6    7 1
    13    7    8 2
    14    7   32 1
    15    8    9 1
    16    9   10 am
    17    9   33 1
    18   10   11 2
    19   10   12 1
    20   12   16 1
    21   12   13 2
    22   13   14 1
    23   13   34 1
    24   14   15 2
    25   14   18 1
    26   15   16 1
    27   16   17 1
    28   18   23 ar
    29   18   19 ar
    30   19   20 ar
    31   19   35 1
    32   20   21 ar
    33   20   36 1
    34   21   26 1
    35   21   22 ar
    36   22   23 ar
    37   22   24 1
    38   23   37 1
    39   24   25 1
    40   25   26 1
    41   25   38 1
    42   25   39 1
    43   27   40 1
@<TRIPOS>MOLECULE
ZINC01468998
   40    43     0     0     0
SMALL
USER_CHARGES

@<TRIPOS>ATOM
      1 C1         -0.0126    1.0758    0.0080 C.ar      1 <0>        -0.0964
      2 C2          1.1707    1.7821    0.0005 C.ar      1 <0>        -0.1610
      3 C3          1.1531    3.1709    0.0081 C.ar      1 <0>         0.0828
      4 C4         -0.0561    3.8543    0.0229 C.ar      1 <0>        -0.1606
      5 C5         -1.2443    3.1565    0.0310 C.ar      1 <0>        -0.0749
      6 C6         -1.2316    1.7591    0.0174 C.ar      1 <0>        -0.0568
      7 C7         -2.5000    1.0082    0.0193 C.2       1 <0>        -0.1112
      8 N1         -3.6313    1.6449    0.0281 N.2       1 <0>         0.0046
      9 N2         -4.8368    0.9312    0.0299 N.am      1 <0>        -0.3195
     10 C8         -6.0113    1.5922    0.0391 C.2       1 <0>         0.4094
     11 O1         -6.0246    2.8089    0.0458 O.2       1 <0>        -0.3185
     12 C9         -7.2774    0.8427    0.0409 C.2       1 <0>        -0.1519
     13 C10        -8.5535    1.3738    0.0577 C.2       1 <0>        -0.1611
     14 C11        -9.4176    0.2636    0.0512 C.2       1 <0>        -0.0864
     15 N3         -8.6714   -0.8209    0.0336 N.pl3     1 <0>        -0.0462
     16 N4         -7.4238   -0.5160    0.0263 N.2       1 <0>        -0.1169
     17 H1         -9.0277   -1.7552    0.0268 H         1 <0>         0.2873
     18 C12       -10.9013    0.3070    0.0603 C.ar      1 <0>        -0.0159
     19 C13       -11.5642    1.5287   -0.0346 C.ar      1 <0>        -0.0991
     20 C14       -12.9435    1.5685   -0.0257 C.ar      1 <0>        -0.1062
     21 C15       -13.6742    0.3944    0.0767 C.ar      1 <0>         0.0109
     22 C16       -13.0159   -0.8304    0.1716 C.ar      1 <0>         0.0125
     23 C17       -11.6333   -0.8742    0.1580 C.ar      1 <0>        -0.1198
     24 O2        -13.9503   -1.8219    0.2608 O.3       1 <0>        -0.2070
     25 C18       -15.1827   -1.2304   -0.1914 C.3       1 <0>         0.1070
     26 O3        -15.0204    0.1687    0.1068 O.3       1 <0>        -0.2034
     27 O4          2.3220    3.8630    0.0007 O.3       1 <0>        -0.2924
     28 H2          0.0021   -0.0041    0.0020 H         1 <0>         0.1323
     29 H3          2.1132    1.2549   -0.0118 H         1 <0>         0.1414
     30 H4         -0.0650    4.9343    0.0285 H         1 <0>         0.1448
     31 H5         -2.1840    3.6887    0.0425 H         1 <0>         0.1631
     32 H6         -2.4883   -0.0718    0.0133 H         1 <0>         0.1174
     33 H7         -4.8263   -0.0388    0.0245 H         1 <0>         0.2221
     34 H8         -8.8285    2.4180    0.0727 H         1 <0>         0.1807
     35 H9        -10.9982    2.4451   -0.1150 H         1 <0>         0.1520
     36 H10       -13.4554    2.5166   -0.0990 H         1 <0>         0.1509
     37 H11       -11.1218   -1.8229    0.2269 H         1 <0>         0.1317
     38 H12       -15.3091   -1.3813   -1.2635 H         1 <0>         0.0911
     39 H13       -16.0294   -1.6431    0.3569 H         1 <0>         0.1342
     40 H14         2.6520    4.0681   -0.8848 H         1 <0>         0.2291
@<TRIPOS>BOND
     1    1    6 ar
     2    1    2 ar
     3    1   28 1
     4    2    3 ar
     5    2   29 1
     6    3    4 ar
     7    3   27 1
     8    4    5 ar
     9    4   30 1
    10    5    6 ar
    11    5   31 1
    12    6    7 1
    13    7    8 2
    14    7   32 1
    15    8    9 1
    16    9   10 am
    17    9   33 1
    18   10   11 2
    19   10   12 1
    20   12   13 1
    21   12   16 2
    22   13   34 1
    23   13   14 2
    24   14   18 1
    25   14   15 1
    26   15   17 1
    27   15   16 1
    28   18   23 ar
    29   18   19 ar
    30   19   20 ar
    31   19   35 1
    32   20   21 ar
    33   20   36 1
    34   21   26 1
    35   21   22 ar
    36   22   23 ar
    37   22   24 1
    38   23   37 1
    39   24   25 1
    40   25   26 1
    41   25   38 1
    42   25   39 1
    43   27   40 1
@<TRIPOS>MOLECULE
ZINC01472306
   42    44     0     0     0
SMALL
USER_CHARGES

@<TRIPOS>ATOM
      1 C1          3.1439    1.7730   -1.6146 C.3       1 <0>        -0.0335
      2 O1          2.1865    1.0840   -0.7680 O.3       1 <0>        -0.2759
      3 C2          0.9268    1.5595   -0.7571 C.2       1 <0>         0.4032
      4 O2          0.6356    2.5239   -1.4366 O.2       1 <0>        -0.3998
      5 N1         -0.0111    0.9658    0.0074 N.am      1 <0>        -0.3136
      6 C3         -1.2917    1.5223    0.1021 C.ar      1 <0>         0.1349
      7 C4         -1.4570    2.9002    0.0526 C.ar      1 <0>        -0.1528
      8 C5         -2.7226    3.4460    0.1416 C.ar      1 <0>        -0.0032
      9 C6         -3.8235    2.6225    0.2903 C.ar      1 <0>        -0.7772
     10 C7         -3.6617    1.2503    0.3451 C.ar      1 <0>        -0.0067
     11 C8         -2.3992    0.6980    0.2515 C.ar      1 <0>        -0.1867
     12 S1         -5.4357    3.3231    0.4107 S.o2      1 <0>         2.7647
     13 O3         -5.3725    4.5974   -0.2150 O.2       1 <0>        -0.9132
     14 O4         -6.3483    2.3156   -0.0031 O.2       1 <0>        -0.9146
     15 N2         -5.7311    3.5987    2.0167 N.pl3     1 <0>        -0.8129
     16 C9         -4.9647    4.5327    2.7175 C.ar      1 <0>         0.0507
     17 C10        -4.6925    5.7736    2.1552 C.ar      1 <0>        -0.1610
     18 C11        -3.9351    6.6923    2.8521 C.ar      1 <0>        -0.0964
     19 C12        -3.4438    6.3832    4.1104 C.ar      1 <0>        -0.0934
     20 C13        -3.7129    5.1489    4.6728 C.ar      1 <0>        -0.0717
     21 C14        -4.4774    4.2265    3.9803 C.ar      1 <0>        -0.1330
     22 C15        -3.0695    5.0585    6.0402 C.3       1 <0>        -0.1202
     23 C16        -2.7526    6.5166    6.4346 C.3       1 <0>        -0.1596
     24 C17        -2.6013    7.2058    5.0620 C.3       1 <0>        -0.1200
     25 H1          2.8071    1.7338   -2.6505 H         1 <0>         0.0877
     26 H2          3.2261    2.8129   -1.2984 H         1 <0>         0.0854
     27 H3          4.1172    1.2896   -1.5304 H         1 <0>         0.1070
     28 H4          0.2003    0.1507    0.4887 H         1 <0>         0.2448
     29 H5         -0.5972    3.5441   -0.0590 H         1 <0>         0.1681
     30 H6         -2.8522    4.5174    0.0991 H         1 <0>         0.1566
     31 H7         -4.5234    0.6097    0.4610 H         1 <0>         0.1514
     32 H8         -2.2736   -0.3738    0.2940 H         1 <0>         0.1378
     33 H9         -6.4363    3.1114    2.4707 H         1 <0>         0.2521
     34 H10        -5.0728    6.0184    1.1745 H         1 <0>         0.1816
     35 H11        -3.7237    7.6568    2.4146 H         1 <0>         0.1359
     36 H12        -4.6913    3.2643    4.4215 H         1 <0>         0.1316
     37 H13        -3.7622    4.6152    6.7556 H         1 <0>         0.0899
     38 H14        -2.1517    4.4727    5.9884 H         1 <0>         0.0953
     39 H15        -3.5769    6.9533    6.9986 H         1 <0>         0.0919
     40 H16        -1.8226    6.5716    7.0004 H         1 <0>         0.0884
     41 H17        -1.5577    7.1970    4.7474 H         1 <0>         0.0951
     42 H18        -2.9742    8.2289    5.1093 H         1 <0>         0.0911
@<TRIPOS>BOND
     1    1    2 1
     2    1   25 1
     3    1   26 1
     4    1   27 1
     5    2    3 1
     6    3    4 2
     7    3    5 am
     8    5    6 1
     9    5   28 1
    10    6   11 ar
    11    6    7 ar
    12    7    8 ar
    13    7   29 1
    14    8    9 ar
    15    8   30 1
    16    9   10 ar
    17    9   12 1
    18   10   11 ar
    19   10   31 1
    20   11   32 1
    21   12   13 2
    22   12   14 2
    23   12   15 1
    24   15   16 1
    25   15   33 1
    26   16   21 ar
    27   16   17 ar
    28   17   18 ar
    29   17   34 1
    30   18   19 ar
    31   18   35 1
    32   19   24 1
    33   19   20 ar
    34   20   21 ar
    35   20   22 1
    36   21   36 1
    37   22   23 1
    38   22   37 1
    39   22   38 1
    40   23   24 1
    41   23   39 1
    42   23   40 1
    43   24   41 1
    44   24   42 1
@<TRIPOS>MOLECULE
ZINC01472307
   41    43     0     0     0
SMALL
USER_CHARGES

@<TRIPOS>ATOM
      1 C1          2.8716    3.8021   -8.7179 C.3       1 <0>        -0.2362
      2 C2          3.4386    3.4967   -7.3554 C.2       1 <0>         0.3006
      3 O1          4.4231    4.0860   -6.9622 O.2       1 <0>        -0.3445
      4 N1          2.8517    2.5687   -6.5738 N.am      1 <0>        -0.3329
      5 C3          3.3096    2.3630   -5.2678 C.ar      1 <0>         0.1200
      6 C4          3.8078    3.4283   -4.5292 C.ar      1 <0>        -0.1541
      7 C5          4.2586    3.2221   -3.2401 C.ar      1 <0>        -0.0080
      8 C6          4.2139    1.9565   -2.6846 C.ar      1 <0>        -0.7784
      9 C7          3.7233    0.8927   -3.4193 C.ar      1 <0>        -0.0031
     10 C8          3.2665    1.0932   -4.7072 C.ar      1 <0>        -0.1879
     11 S1          4.7901    1.6975   -1.0397 S.o2      1 <0>         2.7644
     12 O2          5.7093    2.7450   -0.7618 O.2       1 <0>        -0.9122
     13 O3          5.1475    0.3254   -0.9459 O.2       1 <0>        -0.9165
     14 N2          3.4984    1.9205   -0.0277 N.pl3     1 <0>        -0.8128
     15 C9          2.4080    1.0494   -0.0849 C.ar      1 <0>         0.0526
     16 C10         2.6148   -0.3227   -0.1527 C.ar      1 <0>        -0.1616
     17 C11         1.5339   -1.1782   -0.2090 C.ar      1 <0>        -0.0974
     18 C12         0.2427   -0.6756   -0.1982 C.ar      1 <0>        -0.0949
     19 C13         0.0334    0.6897   -0.1308 C.ar      1 <0>        -0.0717
     20 C14         1.1144    1.5517   -0.0745 C.ar      1 <0>        -0.1327
     21 C15        -1.4522    0.9806   -0.1391 C.3       1 <0>        -0.1199
     22 C16        -2.1164   -0.3144   -0.6476 C.3       1 <0>        -0.1599
     23 C17        -1.0885   -1.3948   -0.2498 C.3       1 <0>        -0.1197
     24 H1          1.9949    3.1790   -8.8946 H         1 <0>         0.0790
     25 H2          2.5860    4.8530   -8.7653 H         1 <0>         0.1163
     26 H3          3.6238    3.5953   -9.4792 H         1 <0>         0.1171
     27 H4          2.1118    2.0435   -6.9167 H         1 <0>         0.2355
     28 H5          3.8423    4.4171   -4.9622 H         1 <0>         0.1654
     29 H6          4.6462    4.0501   -2.6652 H         1 <0>         0.1529
     30 H7          3.6939   -0.0954   -2.9842 H         1 <0>         0.1528
     31 H8          2.8796    0.2627   -5.2790 H         1 <0>         0.1358
     32 H9          3.4990    2.6559    0.6047 H         1 <0>         0.2526
     33 H10         3.6195   -0.7187   -0.1617 H         1 <0>         0.1816
     34 H11         1.6950   -2.2449   -0.2613 H         1 <0>         0.1351
     35 H12         0.9509    2.6180   -0.0218 H         1 <0>         0.1326
     36 H13        -1.7992    1.2051    0.8695 H         1 <0>         0.0964
     37 H14        -1.6711    1.8120   -0.8091 H         1 <0>         0.0896
     38 H15        -2.2439   -0.2807   -1.7296 H         1 <0>         0.0890
     39 H16        -3.0716   -0.4871   -0.1518 H         1 <0>         0.0893
     40 H17        -1.0622   -2.1859   -0.9992 H         1 <0>         0.0893
     41 H18        -1.3335   -1.8078    0.7287 H         1 <0>         0.0967
@<TRIPOS>BOND
     1    1    2 1
     2    1   24 1
     3    1   25 1
     4    1   26 1
     5    2    3 2
     6    2    4 am
     7    4    5 1
     8    4   27 1
     9    5   10 ar
    10    5    6 ar
    11    6    7 ar
    12    6   28 1
    13    7    8 ar
    14    7   29 1
    15    8    9 ar
    16    8   11 1
    17    9   10 ar
    18    9   30 1
    19   10   31 1
    20   11   12 2
    21   11   13 2
    22   11   14 1
    23   14   15 1
    24   14   32 1
    25   15   20 ar
    26   15   16 ar
    27   16   17 ar
    28   16   33 1
    29   17   18 ar
    30   17   34 1
    31   18   23 1
    32   18   19 ar
    33   19   20 ar
    34   19   21 1
    35   20   35 1
    36   21   22 1
    37   21   36 1
    38   21   37 1
    39   22   23 1
    40   22   38 1
    41   22   39 1
    42   23   40 1
    43   23   41 1
@<TRIPOS>MOLECULE
ZINC01475243
   42    44     0     0     0
SMALL
USER_CHARGES

@<TRIPOS>ATOM
      1 C1        -11.8660    4.7802   -0.9665 C.3       1 <0>        -0.0514
      2 N1        -10.7818    3.9248   -1.4554 N.am      1 <0>        -0.2361
      3 C2        -10.0260    3.1862   -0.5595 C.2       1 <0>         0.0987
      4 C3         -8.9995    2.3871   -1.0473 C.2       1 <0>        -0.2396
      5 C4         -8.7647    2.3425   -2.4385 C.2       1 <0>         0.3913
      6 O1         -7.8738    1.6460   -2.8909 O.2       1 <0>        -0.3697
      7 N2         -9.5347    3.0852   -3.2608 N.am      1 <0>        -0.2942
      8 C5        -10.5211    3.8581   -2.7746 C.2       1 <0>         0.4108
      9 O2        -11.1954    4.5133   -3.5458 O.2       1 <0>        -0.3830
     10 C6         -9.2923    3.0483   -4.7051 C.3       1 <0>        -0.0553
     11 N3         -8.4308    1.7751    0.0517 N.pl3     1 <0>        -0.0827
     12 C7         -9.1001    2.2124    1.1361 C.2       1 <0>        -0.0105
     13 N4        -10.0404    3.0450    0.7684 N.2       1 <0>        -0.1938
     14 C8         -7.3084    0.8336    0.0413 C.3       1 <0>        -0.0395
     15 C9         -6.0105    1.5993    0.0392 C.2       1 <0>         0.3014
     16 O3         -6.0219    2.8124    0.0458 O.2       1 <0>        -0.2919
     17 N5         -4.8370    0.9365    0.0301 N.am      1 <0>        -0.3319
     18 N6         -3.6304    1.6483    0.0282 N.2       1 <0>         0.0296
     19 C10        -2.5003    1.0100    0.0194 C.2       1 <0>        -0.1097
     20 C11        -1.2309    1.7588    0.0174 C.ar      1 <0>        -0.0797
     21 C12        -0.0126    1.0758    0.0080 C.ar      1 <0>        -0.0945
     22 C13         1.1715    1.7826    0.0004 C.ar      1 <0>        -0.1461
     23 C14         1.1582    3.1670    0.0075 C.ar      1 <0>        -0.0992
     24 C15        -0.0406    3.8545    0.0226 C.ar      1 <0>        -0.1626
     25 C16        -1.2395    3.1603    0.0304 C.ar      1 <0>         0.1149
     26 O4         -2.4180    3.8349    0.0452 O.3       1 <0>        -0.2673
     27 H1        -11.4761    5.7758   -0.7550 H         1 <0>         0.0879
     28 H2        -12.6452    4.8488   -1.7256 H         1 <0>         0.1096
     29 H3        -12.2835    4.3523   -0.0550 H         1 <0>         0.1027
     30 H4        -10.0025    3.7034   -5.2096 H         1 <0>         0.1216
     31 H5         -8.2767    3.3856   -4.9118 H         1 <0>         0.0953
     32 H6         -9.4174    2.0283   -5.0685 H         1 <0>         0.0910
     33 H7         -8.8923    1.9197    2.1548 H         1 <0>         0.2126
     34 H8         -7.3645    0.2112   -0.8518 H         1 <0>         0.1480
     35 H9         -7.3561    0.2016    0.9281 H         1 <0>         0.1162
     36 H10        -4.8279   -0.0335    0.0248 H         1 <0>         0.2035
     37 H11        -2.4901   -0.0700    0.0135 H         1 <0>         0.1153
     38 H12         0.0021   -0.0041    0.0020 H         1 <0>         0.1316
     39 H13         2.1132    1.2539   -0.0114 H         1 <0>         0.1339
     40 H14         2.0901    3.7129    0.0016 H         1 <0>         0.1342
     41 H15        -0.0429    4.9345    0.0288 H         1 <0>         0.1455
     42 H16        -2.7678    4.0350   -0.8338 H         1 <0>         0.2429
@<TRIPOS>BOND
     1    1    2 1
     2    1   27 1
     3    1   28 1
     4    1   29 1
     5    2    8 am
     6    2    3 1
     7    3   13 1
     8    3    4 2
     9    4    5 1
    10    4   11 1
    11    5    6 2
    12    5    7 am
    13    7    8 am
    14    7   10 1
    15    8    9 2
    16   10   30 1
    17   10   31 1
    18   10   32 1
    19   11   12 1
    20   11   14 1
    21   12   13 2
    22   12   33 1
    23   14   15 1
    24   14   34 1
    25   14   35 1
    26   15   16 2
    27   15   17 am
    28   17   18 1
    29   17   36 1
    30   18   19 2
    31   19   20 1
    32   19   37 1
    33   20   25 ar
    34   20   21 ar
    35   21   22 ar
    36   21   38 1
    37   22   23 ar
    38   22   39 1
    39   23   24 ar
    40   23   40 1
    41   24   25 ar
    42   24   41 1
    43   25   26 1
    44   26   42 1
@<TRIPOS>MOLECULE
ZINC01475243
   43    45     0     0     0
SMALL
USER_CHARGES

@<TRIPOS>ATOM
      1 C1        -11.8660    4.7802   -0.9665 C.3       1 <0>        -0.0710
      2 N1        -10.7818    3.9248   -1.4554 N.am      1 <0>        -0.2431
      3 C2        -10.0260    3.1862   -0.5595 C.2       1 <0>         0.1226
      4 C3         -8.9995    2.3871   -1.0473 C.2       1 <0>        -0.1609
      5 C4         -8.7647    2.3425   -2.4385 C.2       1 <0>         0.3778
      6 O1         -7.8738    1.6460   -2.8909 O.2       1 <0>        -0.3000
      7 N2         -9.5347    3.0852   -3.2608 N.am      1 <0>        -0.2826
      8 C5        -10.5211    3.8581   -2.7746 C.2       1 <0>         0.4090
      9 O2        -11.1954    4.5133   -3.5458 O.2       1 <0>        -0.3082
     10 C6         -9.2923    3.0483   -4.7051 C.3       1 <0>        -0.0615
     11 N3         -8.4308    1.7751    0.0517 N.pl3     1 <0>         0.0046
     12 C7         -9.1001    2.2124    1.1361 C.cat     1 <0>         0.0422
     13 C8         -7.3084    0.8336    0.0413 C.3       1 <0>        -0.0618
     14 C9         -6.0105    1.5993    0.0392 C.2       1 <0>         0.3062
     15 O3         -6.0219    2.8124    0.0458 O.2       1 <0>        -0.3077
     16 N4         -4.8370    0.9365    0.0301 N.am      1 <0>        -0.3130
     17 N5         -3.6304    1.6483    0.0282 N.2       1 <0>         0.0043
     18 C10        -2.5003    1.0100    0.0194 C.2       1 <0>        -0.0642
     19 C11        -1.2309    1.7588    0.0174 C.ar      1 <0>        -0.1017
     20 C12        -0.0126    1.0758    0.0080 C.ar      1 <0>        -0.0837
     21 C13         1.1715    1.7826    0.0004 C.ar      1 <0>        -0.1403
     22 C14         1.1582    3.1670    0.0075 C.ar      1 <0>        -0.0828
     23 C15        -0.0406    3.8545    0.0226 C.ar      1 <0>        -0.1608
     24 C16        -1.2395    3.1603    0.0304 C.ar      1 <0>         0.1178
     25 O4         -2.4180    3.8349    0.0452 O.3       1 <0>        -0.2726
     26 H1        -11.4761    5.7758   -0.7550 H         1 <0>         0.1130
     27 H2        -12.6452    4.8488   -1.7256 H         1 <0>         0.1523
     28 H3        -12.2835    4.3523   -0.0550 H         1 <0>         0.0801
     29 H4        -10.0025    3.7034   -5.2096 H         1 <0>         0.1377
     30 H5         -8.2767    3.3856   -4.9118 H         1 <0>         0.1141
     31 H6         -9.4174    2.0283   -5.0685 H         1 <0>         0.1098
     32 H7         -8.8923    1.9197    2.1548 H         1 <0>         0.2558
     33 H8         -7.3645    0.2112   -0.8518 H         1 <0>         0.1758
     34 H9         -7.3561    0.2016    0.9281 H         1 <0>         0.1410
     35 H10        -4.8279   -0.0335    0.0248 H         1 <0>         0.2078
     36 H11        -2.4901   -0.0700    0.0135 H         1 <0>         0.1214
     37 H12         0.0021   -0.0041    0.0020 H         1 <0>         0.1358
     38 H13         2.1132    1.2539   -0.0114 H         1 <0>         0.1442
     39 H14         2.0901    3.7129    0.0016 H         1 <0>         0.1441
     40 H15        -0.0429    4.9345    0.0288 H         1 <0>         0.1510
     41 H16        -2.7678    4.0350   -0.8338 H         1 <0>         0.2398
     42 N6        -10.0417    3.0460    0.7697 N.pl3     1 <0>        -0.1118
     43 H17       -10.6930    3.5197    1.4067 H         1 <0>         0.3195
@<TRIPOS>BOND
     1    1    2 1
     2    1   26 1
     3    1   27 1
     4    1   28 1
     5    2    8 am
     6    2    3 1
     7    3    4 2
     8    3   42 1
     9    4    5 1
    10    4   11 1
    11    5    6 2
    12    5    7 am
    13    7    8 am
    14    7   10 1
    15    8    9 2
    16   10   29 1
    17   10   30 1
    18   10   31 1
    19   11   12 1
    20   11   13 1
    21   12   32 1
    22   12   42 2
    23   13   14 1
    24   13   33 1
    25   13   34 1
    26   14   15 2
    27   14   16 am
    28   16   17 1
    29   16   35 1
    30   17   18 2
    31   18   19 1
    32   18   36 1
    33   19   24 ar
    34   19   20 ar
    35   20   21 ar
    36   20   37 1
    37   21   22 ar
    38   21   38 1
    39   22   23 ar
    40   22   39 1
    41   23   24 ar
    42   23   40 1
    43   24   25 1
    44   25   41 1
    45   42   43 1
@<TRIPOS>MOLECULE
ZINC01475794
   39    40     0     0     0
SMALL
USER_CHARGES

@<TRIPOS>ATOM
      1 C1          2.7115    5.1808   -1.4815 C.3       1 <0>        -0.2361
      2 C2          2.4897    3.8714   -0.7694 C.2       1 <0>         0.3022
      3 O1          3.2038    3.5577    0.1594 O.2       1 <0>        -0.3539
      4 N1          1.4978    3.0489   -1.1645 N.am      1 <0>        -0.3258
      5 C3          1.3582    1.7876   -0.5750 C.ar      1 <0>         0.0810
      6 C4          2.4830    1.0856   -0.1598 C.ar      1 <0>        -0.1385
      7 C5          2.3460   -0.1598    0.4219 C.ar      1 <0>        -0.0958
      8 C6          1.0907   -0.7115    0.5929 C.ar      1 <0>        -0.1764
      9 C7         -0.0378   -0.0147    0.1799 C.ar      1 <0>         0.0738
     10 C8          0.0965    1.2366   -0.4048 C.ar      1 <0>        -0.1601
     11 N2         -1.3087   -0.5738    0.3538 N.am      1 <0>        -0.3286
     12 C9         -2.3577    0.2175    0.6536 C.2       1 <0>         0.2960
     13 O2         -2.2179    1.4217    0.6907 O.2       1 <0>        -0.2978
     14 C10        -3.7044   -0.3940    0.9428 C.3       1 <0>        -0.0435
     15 O3         -4.6458    0.6417    1.2310 O.3       1 <0>        -0.1392
     16 C11        -5.9179    0.2574    1.5156 C.ar      1 <0>         0.1515
     17 C12        -6.2546   -1.0887    1.5117 C.ar      1 <0>        -0.2378
     18 C13        -7.5472   -1.4769    1.8055 C.ar      1 <0>        -0.0477
     19 C14        -8.5078   -0.5247    2.0935 C.ar      1 <0>        -0.1740
     20 C15        -8.1761    0.8173    2.0932 C.ar      1 <0>        -0.0332
     21 C16        -6.8833    1.2105    1.8047 C.ar      1 <0>        -0.1404
     22 N3         -6.5290    2.6476    1.8037 N.pl3     1 <0>         0.5510
     23 O4         -7.3772    3.4841    2.0577 O.2       1 <0>        -0.3738
     24 O5         -5.3894    2.9936    1.5489 O.3       1 <0>        -0.3131
     25 H1          1.9789    5.2879   -2.2815 H         1 <0>         0.0789
     26 H2          2.5997    6.0026   -0.7742 H         1 <0>         0.1164
     27 H3          3.7161    5.1991   -1.9039 H         1 <0>         0.1119
     28 H4          0.8808    3.3313   -1.8577 H         1 <0>         0.2347
     29 H5          3.4655    1.5140   -0.2920 H         1 <0>         0.1608
     30 H6          3.2219   -0.7036    0.7437 H         1 <0>         0.1362
     31 H7          0.9865   -1.6834    1.0521 H         1 <0>         0.1272
     32 H8         -0.7794    1.7804   -0.7263 H         1 <0>         0.1661
     33 H9         -1.4347   -1.5309    0.2586 H         1 <0>         0.2290
     34 H10        -4.0409   -0.9594    0.0738 H         1 <0>         0.0940
     35 H11        -3.6238   -1.0609    1.8012 H         1 <0>         0.0980
     36 H12        -5.5058   -1.8324    1.2826 H         1 <0>         0.1448
     37 H13        -7.8088   -2.5247    1.8063 H         1 <0>         0.1419
     38 H14        -9.5190   -0.8300    2.3185 H         1 <0>         0.1486
     39 H15        -8.9281    1.5590    2.3184 H         1 <0>         0.1715
@<TRIPOS>BOND
     1    1    2 1
     2    1   25 1
     3    1   26 1
     4    1   27 1
     5    2    3 2
     6    2    4 am
     7    4    5 1
     8    4   28 1
     9    5   10 ar
    10    5    6 ar
    11    6    7 ar
    12    6   29 1
    13    7    8 ar
    14    7   30 1
    15    8    9 ar
    16    8   31 1
    17    9   10 ar
    18    9   11 1
    19   10   32 1
    20   11   12 am
    21   11   33 1
    22   12   13 2
    23   12   14 1
    24   14   15 1
    25   14   34 1
    26   14   35 1
    27   15   16 1
    28   16   21 ar
    29   16   17 ar
    30   17   18 ar
    31   17   36 1
    32   18   19 ar
    33   18   37 1
    34   19   20 ar
    35   19   38 1
    36   20   21 ar
    37   20   39 1
    38   21   22 1
    39   22   23 2
    40   22   24 1
@<TRIPOS>MOLECULE
ZINC01475798
   39    40     0     0     0
SMALL
USER_CHARGES

@<TRIPOS>ATOM
      1 C1          2.0542   -0.0839   -1.4332 C.3       1 <0>        -0.2411
      2 C2          0.7016    0.5343   -1.1896 C.2       1 <0>         0.3012
      3 O1         -0.1590    0.4654   -2.0415 O.2       1 <0>        -0.3558
      4 N1          0.4482    1.1638   -0.0251 N.am      1 <0>        -0.3292
      5 C3         -0.7762    1.8167    0.1661 C.ar      1 <0>         0.0479
      6 C4         -0.8304    2.9855    0.9141 C.ar      1 <0>        -0.1448
      7 C5         -2.0362    3.6320    1.0978 C.ar      1 <0>        -0.1078
      8 C6         -3.1968    3.1072    0.5446 C.ar      1 <0>         0.0384
      9 C7         -3.1434    1.9353   -0.1986 C.ar      1 <0>        -0.1426
     10 C8         -1.9367    1.2921   -0.3875 C.ar      1 <0>        -0.1110
     11 N2         -4.4212    3.7601    0.7358 N.am      1 <0>        -0.3216
     12 C9         -4.4666    5.1062    0.7850 C.2       1 <0>         0.3223
     13 O2         -3.4390    5.7495    0.7479 O.2       1 <0>        -0.3302
     14 C10        -5.7942    5.8121    0.8862 C.3       1 <0>        -0.3738
     15 S1         -5.5236    7.6052    0.9325 S.3       1 <0>         0.4000
     16 C11        -7.1477    8.2785    1.0497 C.ar      1 <0>        -0.1758
     17 C12        -8.2515    7.4342    1.0785 C.ar      1 <0>        -0.1678
     18 C13        -9.5222    7.9651    1.1761 C.ar      1 <0>        -0.0661
     19 C14        -9.6983    9.3359    1.2337 C.ar      1 <0>        -0.1528
     20 C15        -8.6028   10.1792    1.1995 C.ar      1 <0>        -0.0459
     21 C16        -7.3285    9.6550    1.1077 C.ar      1 <0>        -0.1127
     22 N3         -6.1567   10.5584    1.0707 N.pl3     1 <0>         0.5464
     23 O3         -6.3160   11.7649    1.1217 O.2       1 <0>        -0.3564
     24 O4         -5.0331   10.0954    0.9893 O.3       1 <0>        -0.3343
     25 H1          2.2484   -0.8432   -0.6758 H         1 <0>         0.0939
     26 H2          2.0709   -0.5437   -2.4213 H         1 <0>         0.1191
     27 H3          2.8217    0.6882   -1.3788 H         1 <0>         0.0979
     28 H4          1.1122    1.1612    0.6821 H         1 <0>         0.2318
     29 H5          0.0715    3.3912    1.3481 H         1 <0>         0.1353
     30 H6         -2.0776    4.5436    1.6755 H         1 <0>         0.1679
     31 H7         -4.0460    1.5273   -0.6291 H         1 <0>         0.1324
     32 H8         -1.8951    0.3811   -0.9661 H         1 <0>         0.1679
     33 H9         -5.2364    3.2434    0.8329 H         1 <0>         0.2306
     34 H10        -6.4070    5.5594    0.0208 H         1 <0>         0.1216
     35 H11        -6.3044    5.4980    1.7968 H         1 <0>         0.1183
     36 H12        -8.1150    6.3640    1.0287 H         1 <0>         0.1409
     37 H13       -10.3800    7.3096    1.2030 H         1 <0>         0.1409
     38 H14       -10.6937    9.7486    1.3052 H         1 <0>         0.1475
     39 H15        -8.7441   11.2490    1.2443 H         1 <0>         0.1675
@<TRIPOS>BOND
     1    1    2 1
     2    1   25 1
     3    1   26 1
     4    1   27 1
     5    2    3 2
     6    2    4 am
     7    4    5 1
     8    4   28 1
     9    5   10 ar
    10    5    6 ar
    11    6    7 ar
    12    6   29 1
    13    7    8 ar
    14    7   30 1
    15    8    9 ar
    16    8   11 1
    17    9   10 ar
    18    9   31 1
    19   10   32 1
    20   11   12 am
    21   11   33 1
    22   12   13 2
    23   12   14 1
    24   14   15 1
    25   14   34 1
    26   14   35 1
    27   15   16 1
    28   16   21 ar
    29   16   17 ar
    30   17   18 ar
    31   17   36 1
    32   18   19 ar
    33   18   37 1
    34   19   20 ar
    35   19   38 1
    36   20   21 ar
    37   20   39 1
    38   21   22 1
    39   22   23 2
    40   22   24 1
@<TRIPOS>MOLECULE
ZINC01485420
   45    47     0     0     0
SMALL
USER_CHARGES

@<TRIPOS>ATOM
      1 C1         -4.7864   -1.8298    0.0415 C.3       1 <0>        -0.1332
      2 C2         -4.0592   -0.5098    0.0338 C.2       1 <0>        -0.0382
      3 C3         -4.6399    0.7107    0.0343 C.2       1 <0>        -0.1677
      4 N1         -3.6333    1.6367    0.0267 N.pl3     1 <0>         0.0091
      5 C4         -3.6352    3.0040    0.0241 C.2       1 <0>        -0.1195
      6 C5         -2.4767    3.6953    0.0166 C.2       1 <0>        -0.1034
      7 C6         -1.2463    3.0186    0.0114 C.2       1 <0>        -0.2538
      8 C7         -1.2267    1.6525    0.0139 C.2       1 <0>         0.1634
      9 C8         -2.4520    0.9442    0.0163 C.2       1 <0>        -0.0274
     10 N2         -2.7342   -0.3506    0.0262 N.2       1 <0>        -0.1812
     11 N3         -0.0122    0.9632    0.0082 N.pl3     1 <0>        -0.3570
     12 C9          1.2510    1.7051   -0.0065 C.3       1 <0>         0.0408
     13 C10         2.4036    0.7343   -0.0168 C.ar      1 <0>        -0.1898
     14 C11         2.9517    0.2932    1.1802 C.ar      1 <0>         0.1245
     15 C12         4.0097   -0.6062    1.1669 C.ar      1 <0>        -0.1574
     16 C13         4.5225   -1.0511   -0.0362 C.ar      1 <0>        -0.0735
     17 C14         3.9799   -0.6070   -1.2274 C.ar      1 <0>        -0.1901
     18 C15         2.9207    0.2858   -1.2187 C.ar      1 <0>         0.1372
     19 F1          2.3923    0.7182   -2.3845 F         1 <0>        -0.0970
     20 N4          2.4347    0.7493    2.3981 N.am      1 <0>        -0.3051
     21 C16         3.2091    0.7494    3.5011 C.2       1 <0>         0.4051
     22 O1          4.3841    0.4508    3.4186 O.2       1 <0>        -0.4070
     23 O2          2.6808    1.0804    4.6946 O.3       1 <0>        -0.2728
     24 C17         3.5736    1.0589    5.8395 C.3       1 <0>        -0.0336
     25 C18        -6.1193    0.9976    0.0422 C.3       1 <0>         0.0792
     26 O3         -6.5946    1.0856   -1.3025 O.3       1 <0>        -0.3476
     27 H1         -4.9680   -2.1505   -0.9843 H         1 <0>         0.0951
     28 H2         -4.1792   -2.5762    0.5535 H         1 <0>         0.0931
     29 H3         -5.7381   -1.7172    0.5608 H         1 <0>         0.0764
     30 H4         -4.5748    3.5366    0.0277 H         1 <0>         0.1581
     31 H5         -2.4957    4.7751    0.0150 H         1 <0>         0.1453
     32 H6         -0.3206    3.5750    0.0057 H         1 <0>         0.1420
     33 H7         -0.0050   -0.0068    0.0100 H         1 <0>         0.2520
     34 H8          1.2947    2.3304   -0.8983 H         1 <0>         0.1027
     35 H9          1.3135    2.3339    0.8816 H         1 <0>         0.0818
     36 H10         4.4344   -0.9543    2.0969 H         1 <0>         0.1803
     37 H11         5.3482   -1.7471   -0.0461 H         1 <0>         0.1435
     38 H12         4.3823   -0.9569   -2.1666 H         1 <0>         0.1485
     39 H13         1.5191    1.0654    2.4483 H         1 <0>         0.2520
     40 H14         3.9776    0.0545    5.9664 H         1 <0>         0.0853
     41 H15         4.3909    1.7613    5.6761 H         1 <0>         0.0862
     42 H16         3.0225    1.3448    6.7354 H         1 <0>         0.1077
     43 H17        -6.6424    0.1940    0.5606 H         1 <0>         0.0774
     44 H18        -6.3036    1.9415    0.5553 H         1 <0>         0.0592
     45 H19        -7.5414    1.2690   -1.3738 H         1 <0>         0.2093
@<TRIPOS>BOND
     1    1    2 1
     2    1   27 1
     3    1   28 1
     4    1   29 1
     5    2   10 1
     6    2    3 2
     7    3    4 1
     8    3   25 1
     9    4    9 1
    10    4    5 1
    11    5    6 2
    12    5   30 1
    13    6    7 1
    14    6   31 1
    15    7    8 2
    16    7   32 1
    17    8    9 1
    18    8   11 1
    19    9   10 2
    20   11   12 1
    21   11   33 1
    22   12   13 1
    23   12   34 1
    24   12   35 1
    25   13   18 ar
    26   13   14 ar
    27   14   15 ar
    28   14   20 1
    29   15   16 ar
    30   15   36 1
    31   16   17 ar
    32   16   37 1
    33   17   18 ar
    34   17   38 1
    35   18   19 1
    36   20   21 am
    37   20   39 1
    38   21   22 2
    39   21   23 1
    40   23   24 1
    41   24   40 1
    42   24   41 1
    43   24   42 1
    44   25   26 1
    45   25   43 1
    46   25   44 1
    47   26   45 1
@<TRIPOS>MOLECULE
ZINC01485420
   46    48     0     0     0
SMALL
USER_CHARGES

@<TRIPOS>ATOM
      1 C1         -4.7864   -1.8298    0.0415 C.3       1 <0>        -0.1623
      2 C2         -4.0592   -0.5098    0.0338 C.2       1 <0>         0.0112
      3 C3         -4.6399    0.7107    0.0343 C.2       1 <0>        -0.1027
      4 N1         -3.6333    1.6367    0.0267 N.pl3     1 <0>         0.0632
      5 C4         -3.6352    3.0040    0.0241 C.2       1 <0>        -0.1009
      6 C5         -2.4767    3.6953    0.0166 C.2       1 <0>        -0.0675
      7 C6         -1.2463    3.0186    0.0114 C.2       1 <0>        -0.1672
      8 C7         -1.2267    1.6525    0.0139 C.2       1 <0>         0.1201
      9 C8         -2.4520    0.9442    0.0163 C.cat     1 <0>         0.0220
     10 N2         -0.0122    0.9632    0.0082 N.pl3     1 <0>        -0.3524
     11 C9          1.2510    1.7051   -0.0065 C.3       1 <0>         0.0400
     12 C10         2.4036    0.7343   -0.0168 C.ar      1 <0>        -0.2195
     13 C11         2.9517    0.2932    1.1802 C.ar      1 <0>         0.1273
     14 C12         4.0097   -0.6062    1.1669 C.ar      1 <0>        -0.1524
     15 C13         4.5225   -1.0511   -0.0362 C.ar      1 <0>        -0.0560
     16 C14         3.9799   -0.6070   -1.2274 C.ar      1 <0>        -0.1831
     17 C15         2.9207    0.2858   -1.2187 C.ar      1 <0>         0.1363
     18 F1          2.3923    0.7182   -2.3845 F         1 <0>        -0.0983
     19 N3          2.4347    0.7493    2.3981 N.am      1 <0>        -0.3151
     20 C16         3.2091    0.7494    3.5011 C.2       1 <0>         0.4042
     21 O1          4.3841    0.4508    3.4186 O.2       1 <0>        -0.3877
     22 O2          2.6808    1.0804    4.6946 O.3       1 <0>        -0.2767
     23 C17         3.5736    1.0589    5.8395 C.3       1 <0>        -0.0358
     24 C18        -6.1193    0.9976    0.0422 C.3       1 <0>         0.0716
     25 O3         -6.5946    1.0856   -1.3025 O.3       1 <0>        -0.3460
     26 H1         -4.9680   -2.1505   -0.9843 H         1 <0>         0.1313
     27 H2         -4.1792   -2.5762    0.5535 H         1 <0>         0.1064
     28 H3         -5.7381   -1.7172    0.5608 H         1 <0>         0.1236
     29 H4         -4.5748    3.5366    0.0277 H         1 <0>         0.1985
     30 H5         -2.4957    4.7751    0.0150 H         1 <0>         0.1862
     31 H6         -0.3206    3.5750    0.0057 H         1 <0>         0.1807
     32 H7         -0.0050   -0.0068    0.0100 H         1 <0>         0.2347
     33 H8          1.2947    2.3304   -0.8983 H         1 <0>         0.1153
     34 H9          1.3135    2.3339    0.8816 H         1 <0>         0.0965
     35 H10         4.4344   -0.9543    2.0969 H         1 <0>         0.1903
     36 H11         5.3482   -1.7471   -0.0461 H         1 <0>         0.1578
     37 H12         4.3823   -0.9569   -2.1666 H         1 <0>         0.1604
     38 H13         1.5191    1.0654    2.4483 H         1 <0>         0.2373
     39 H14         3.9776    0.0545    5.9664 H         1 <0>         0.0907
     40 H15         4.3909    1.7613    5.6761 H         1 <0>         0.0938
     41 H16         3.0225    1.3448    6.7354 H         1 <0>         0.1149
     42 H17        -6.6424    0.1940    0.5606 H         1 <0>         0.0998
     43 H18        -6.3036    1.9415    0.5553 H         1 <0>         0.0859
     44 H19        -7.5414    1.2690   -1.3738 H         1 <0>         0.2427
     45 N4         -2.7356   -0.3491    0.0262 N.pl3     1 <0>        -0.1251
     46 H20        -2.0448   -1.1088    0.0278 H         1 <0>         0.3061
@<TRIPOS>BOND
     1    1    2 1
     2    1   26 1
     3    1   27 1
     4    1   28 1
     5    2    3 2
     6    2   45 1
     7    3    4 1
     8    3   24 1
     9    4    9 1
    10    4    5 1
    11    5    6 2
    12    5   29 1
    13    6    7 1
    14    6   30 1
    15    7    8 2
    16    7   31 1
    17    8    9 1
    18    8   10 1
    19    9   45 2
    20   10   11 1
    21   10   32 1
    22   11   12 1
    23   11   33 1
    24   11   34 1
    25   12   17 ar
    26   12   13 ar
    27   13   14 ar
    28   13   19 1
    29   14   15 ar
    30   14   35 1
    31   15   16 ar
    32   15   36 1
    33   16   17 ar
    34   16   37 1
    35   17   18 1
    36   19   20 am
    37   19   38 1
    38   20   21 2
    39   20   22 1
    40   22   23 1
    41   23   39 1
    42   23   40 1
    43   23   41 1
    44   24   25 1
    45   24   42 1
    46   24   43 1
    47   25   44 1
    48   45   46 1
@<TRIPOS>MOLECULE
ZINC01485420
   46    48     0     0     0
SMALL
USER_CHARGES

@<TRIPOS>ATOM
      1 C1         -4.7864   -1.8298    0.0415 C.3       1 <0>        -0.1623
      2 C2         -4.0592   -0.5098    0.0338 C.2       1 <0>         0.0112
      3 C3         -4.6399    0.7107    0.0343 C.2       1 <0>        -0.1027
      4 N1         -3.6333    1.6367    0.0267 N.pl3     1 <0>         0.0632
      5 C4         -3.6352    3.0040    0.0241 C.2       1 <0>        -0.1009
      6 C5         -2.4767    3.6953    0.0166 C.2       1 <0>        -0.0675
      7 C6         -1.2463    3.0186    0.0114 C.2       1 <0>        -0.1672
      8 C7         -1.2267    1.6525    0.0139 C.2       1 <0>         0.1201
      9 C8         -2.4520    0.9442    0.0163 C.cat     1 <0>         0.0220
     10 N2         -0.0122    0.9632    0.0082 N.pl3     1 <0>        -0.3524
     11 C9          1.2510    1.7051   -0.0065 C.3       1 <0>         0.0400
     12 C10         2.4036    0.7343   -0.0168 C.ar      1 <0>        -0.2195
     13 C11         2.9517    0.2932    1.1802 C.ar      1 <0>         0.1273
     14 C12         4.0097   -0.6062    1.1669 C.ar      1 <0>        -0.1524
     15 C13         4.5225   -1.0511   -0.0362 C.ar      1 <0>        -0.0560
     16 C14         3.9799   -0.6070   -1.2274 C.ar      1 <0>        -0.1831
     17 C15         2.9207    0.2858   -1.2187 C.ar      1 <0>         0.1363
     18 F1          2.3923    0.7182   -2.3845 F         1 <0>        -0.0983
     19 N3          2.4347    0.7493    2.3981 N.am      1 <0>        -0.3151
     20 C16         3.2091    0.7494    3.5011 C.2       1 <0>         0.4042
     21 O1          4.3841    0.4508    3.4186 O.2       1 <0>        -0.3877
     22 O2          2.6808    1.0804    4.6946 O.3       1 <0>        -0.2767
     23 C17         3.5736    1.0589    5.8395 C.3       1 <0>        -0.0358
     24 C18        -6.1193    0.9976    0.0422 C.3       1 <0>         0.0716
     25 O3         -6.5946    1.0856   -1.3025 O.3       1 <0>        -0.3460
     26 H1         -4.9680   -2.1505   -0.9843 H         1 <0>         0.1313
     27 H2         -4.1792   -2.5762    0.5535 H         1 <0>         0.1064
     28 H3         -5.7381   -1.7172    0.5608 H         1 <0>         0.1236
     29 H4         -4.5748    3.5366    0.0277 H         1 <0>         0.1985
     30 H5         -2.4957    4.7751    0.0150 H         1 <0>         0.1862
     31 H6         -0.3206    3.5750    0.0057 H         1 <0>         0.1807
     32 H7         -0.0050   -0.0068    0.0100 H         1 <0>         0.2347
     33 H8          1.2947    2.3304   -0.8983 H         1 <0>         0.1153
     34 H9          1.3135    2.3339    0.8816 H         1 <0>         0.0965
     35 H10         4.4344   -0.9543    2.0969 H         1 <0>         0.1903
     36 H11         5.3482   -1.7471   -0.0461 H         1 <0>         0.1578
     37 H12         4.3823   -0.9569   -2.1666 H         1 <0>         0.1604
     38 H13         1.5191    1.0654    2.4483 H         1 <0>         0.2373
     39 H14         3.9776    0.0545    5.9664 H         1 <0>         0.0907
     40 H15         4.3909    1.7613    5.6761 H         1 <0>         0.0938
     41 H16         3.0225    1.3448    6.7354 H         1 <0>         0.1149
     42 H17        -6.6424    0.1940    0.5606 H         1 <0>         0.0998
     43 H18        -6.3036    1.9415    0.5553 H         1 <0>         0.0859
     44 H19        -7.5414    1.2690   -1.3738 H         1 <0>         0.2427
     45 N4         -2.7356   -0.3491    0.0262 N.pl3     1 <0>        -0.1251
     46 H20        -2.0448   -1.1088    0.0278 H         1 <0>         0.3061
@<TRIPOS>BOND
     1    1    2 1
     2    1   26 1
     3    1   27 1
     4    1   28 1
     5    2    3 2
     6    2   45 1
     7    3    4 1
     8    3   24 1
     9    4    9 1
    10    4    5 1
    11    5    6 2
    12    5   29 1
    13    6    7 1
    14    6   30 1
    15    7    8 2
    16    7   31 1
    17    8    9 1
    18    8   10 1
    19    9   45 2
    20   10   11 1
    21   10   32 1
    22   11   12 1
    23   11   33 1
    24   11   34 1
    25   12   17 ar
    26   12   13 ar
    27   13   14 ar
    28   13   19 1
    29   14   15 ar
    30   14   35 1
    31   15   16 ar
    32   15   36 1
    33   16   17 ar
    34   16   37 1
    35   17   18 1
    36   19   20 am
    37   19   38 1
    38   20   21 2
    39   20   22 1
    40   22   23 1
    41   23   39 1
    42   23   40 1
    43   23   41 1
    44   24   25 1
    45   24   42 1
    46   24   43 1
    47   25   44 1
    48   45   46 1
@<TRIPOS>MOLECULE
ZINC01486508
   37    38     0     0     0
SMALL
USER_CHARGES

@<TRIPOS>ATOM
      1 C1         -1.4897   -3.7048    5.4576 C.3       1 <0>        -0.2208
      2 C2         -2.5706   -3.5658    4.4167 C.2       1 <0>         0.0071
      3 N1         -2.3529   -2.8715    3.3468 N.2       1 <0>        -0.1781
      4 N2         -1.1124   -2.2490    3.1560 N.2       1 <0>        -0.1601
      5 C3         -0.8912   -1.5434    2.0686 C.2       1 <0>        -0.0021
      6 N3         -1.7517   -1.3066    1.0176 N.am      1 <0>        -0.3359
      7 C4         -1.4074   -0.5735   -0.0286 C.2       1 <0>         0.2991
      8 O1         -2.1671   -0.3686   -0.9512 O.2       1 <0>        -0.3213
      9 C5          0.0017   -0.0039   -0.0008 C.3       1 <0>        -0.2272
     10 H1          0.5983   -0.3856   -0.8293 H         1 <0>         0.1764
     11 S1          0.5946   -0.6658    1.6064 S.3       1 <0>         0.2491
     12 C6         -0.0189    1.5260    0.0036 C.3       1 <0>        -0.1684
     13 C7          1.3950    2.0474    0.0015 C.2       1 <0>         0.3036
     14 O2          2.3274    1.2717   -0.0031 O.2       1 <0>        -0.3512
     15 N4          1.6234    3.3757    0.0047 N.am      1 <0>        -0.3213
     16 C8          2.9326    3.8602    0.1004 C.ar      1 <0>         0.0551
     17 C9          3.1909    5.0342    0.7957 C.ar      1 <0>        -0.1577
     18 C10         4.4850    5.5071    0.8928 C.ar      1 <0>        -0.1121
     19 C11         5.5213    4.8186    0.2893 C.ar      1 <0>        -0.1406
     20 C12         5.2666    3.6523   -0.4086 C.ar      1 <0>        -0.1119
     21 C13         3.9756    3.1712   -0.5046 C.ar      1 <0>        -0.1242
     22 C14        -3.9049   -4.2354    4.6219 C.3       1 <0>        -0.1719
     23 H2         -1.5784   -2.8966    6.1836 H         1 <0>         0.0979
     24 H3         -1.5959   -4.6631    5.9659 H         1 <0>         0.0806
     25 H4         -0.5131   -3.6551    4.9761 H         1 <0>         0.1140
     26 H5         -2.6417   -1.6915    1.0461 H         1 <0>         0.2606
     27 H6         -0.5399    1.8849   -0.8840 H         1 <0>         0.1301
     28 H7         -0.5353    1.8798    0.8959 H         1 <0>         0.1207
     29 H8          0.8802    3.9957   -0.0594 H         1 <0>         0.2336
     30 H9          2.3814    5.5746    1.2639 H         1 <0>         0.1285
     31 H10         4.6872    6.4176    1.4372 H         1 <0>         0.1315
     32 H11         6.5318    5.1924    0.3634 H         1 <0>         0.1302
     33 H12         6.0781    3.1169   -0.8789 H         1 <0>         0.1348
     34 H13         3.7774    2.2598   -1.0492 H         1 <0>         0.1633
     35 H14        -4.5524   -4.0238    3.7710 H         1 <0>         0.0988
     36 H15        -3.7613   -5.3123    4.7102 H         1 <0>         0.0952
     37 H16        -4.3663   -3.8545    5.5331 H         1 <0>         0.0946
@<TRIPOS>BOND
     1    1    2 1
     2    1   23 1
     3    1   24 1
     4    1   25 1
     5    2    3 2
     6    2   22 1
     7    3    4 1
     8    4    5 2
     9    5   11 1
    10    5    6 1
    11    6    7 am
    12    6   26 1
    13    7    8 2
    14    7    9 1
    15    9   10 1
    16    9   11 1
    17    9   12 1
    18   12   13 1
    19   12   27 1
    20   12   28 1
    21   13   14 2
    22   13   15 am
    23   15   16 1
    24   15   29 1
    25   16   21 ar
    26   16   17 ar
    27   17   18 ar
    28   17   30 1
    29   18   19 ar
    30   18   31 1
    31   19   20 ar
    32   19   32 1
    33   20   21 ar
    34   20   33 1
    35   21   34 1
    36   22   35 1
    37   22   36 1
    38   22   37 1
@<TRIPOS>MOLECULE
ZINC01486605
   39    42     0     0     0
SMALL
USER_CHARGES

@<TRIPOS>ATOM
      1 C1         -2.9504   -0.8836    3.9157 C.ar      1 <0>        -0.1152
      2 C2         -2.0721   -1.8857    3.5480 C.ar      1 <0>        -0.1252
      3 C3         -1.5131   -1.8853    2.2837 C.ar      1 <0>        -0.1005
      4 C4         -1.8324   -0.8828    1.3871 C.ar      1 <0>        -0.1290
      5 C5         -2.7067    0.1223    1.7567 C.ar      1 <0>        -0.1094
      6 C6         -3.2697    0.1190    3.0192 C.ar      1 <0>        -0.1248
      7 C7         -1.2227   -0.8821    0.0090 C.3       1 <0>         0.1839
      8 H1         -0.9422   -1.8992   -0.2647 H         1 <0>         0.1653
      9 C8          0.0021   -0.0041    0.0020 C.2       1 <0>         0.0114
     10 N1          1.2265   -0.4379   -0.0120 N.2       1 <0>        -0.1671
     11 C9          2.0699    0.6298   -0.0143 C.ar      1 <0>        -0.0658
     12 C10         3.4593    0.7636   -0.0269 C.ar      1 <0>        -0.0484
     13 C11         4.0244    2.0191   -0.0259 C.ar      1 <0>        -0.1076
     14 C12         3.2220    3.1505   -0.0126 C.ar      1 <0>        -0.1015
     15 C13         1.8479    3.0334    0.0003 C.ar      1 <0>        -0.1035
     16 C14         1.2618    1.7767   -0.0004 C.ar      1 <0>        -0.0151
     17 O1         -0.0161    1.3381    0.0094 O.3       1 <0>        -0.0961
     18 C15         5.5243    2.1650   -0.0388 C.3       1 <0>        -0.0927
     19 C16         6.0451    2.2069    1.3992 C.3       1 <0>        -0.2192
     20 H2          5.5954    3.0285    1.9567 H         1 <0>         0.1644
     21 C17         7.5650    2.2782    1.4356 C.2       1 <0>         0.3055
     22 O2          8.1814    3.2097    0.9643 O.2       1 <0>        -0.2990
     23 N2          8.1668    1.2539    2.0165 N.am      1 <0>        -0.3668
     24 C18         7.5033    0.2093    2.5459 C.2       1 <0>         0.2317
     25 O3          7.9655   -0.7714    3.0961 O.2       1 <0>        -0.2513
     26 S1          5.7849    0.6000    2.2511 S.3       1 <0>         0.0911
     27 O4         -2.1737   -0.3806   -0.9324 O.3       1 <0>        -0.3254
     28 H3         -3.3868   -0.8837    4.9036 H         1 <0>         0.1329
     29 H4         -1.8224   -2.6688    4.2486 H         1 <0>         0.1354
     30 H5         -0.8267   -2.6681    1.9965 H         1 <0>         0.1391
     31 H6         -2.9527    0.9079    1.0577 H         1 <0>         0.1266
     32 H7         -3.9556    0.9021    3.3066 H         1 <0>         0.1334
     33 H8          4.0885   -0.1142   -0.0372 H         1 <0>         0.1578
     34 H9          3.6765    4.1302   -0.0120 H         1 <0>         0.1417
     35 H10         1.2295    3.9188    0.0113 H         1 <0>         0.1436
     36 H11         5.9673    1.3171   -0.5612 H         1 <0>         0.1079
     37 H12         5.7950    3.0887   -0.5503 H         1 <0>         0.1184
     38 H13         9.1357    1.2553    2.0631 H         1 <0>         0.2514
     39 H14        -2.4687    0.5222   -0.7504 H         1 <0>         0.2221
@<TRIPOS>BOND
     1    1    6 ar
     2    1    2 ar
     3    1   28 1
     4    2    3 ar
     5    2   29 1
     6    3    4 ar
     7    3   30 1
     8    4    5 ar
     9    4    7 1
    10    5    6 ar
    11    5   31 1
    12    6   32 1
    13    7    8 1
    14    7    9 1
    15    7   27 1
    16    9   17 1
    17    9   10 2
    18   10   11 1
    19   11   16 ar
    20   11   12 ar
    21   12   13 ar
    22   12   33 1
    23   13   14 ar
    24   13   18 1
    25   14   15 ar
    26   14   34 1
    27   15   16 ar
    28   15   35 1
    29   16   17 1
    30   18   19 1
    31   18   36 1
    32   18   37 1
    33   19   20 1
    34   19   26 1
    35   19   21 1
    36   21   22 2
    37   21   23 am
    38   23   24 am
    39   23   38 1
    40   24   25 2
    41   24   26 1
    42   27   39 1
@<TRIPOS>MOLECULE
ZINC01487985
   44    47     0     0     0
SMALL
USER_CHARGES

@<TRIPOS>ATOM
      1 C1          5.4115   -2.8620   -0.0661 C.3       1 <0>        -0.0617
      2 O1          3.9827   -2.8806   -0.0522 O.3       1 <0>        -0.2111
      3 C2          3.3498   -1.6775   -0.0397 C.ar      1 <0>         0.1116
      4 C3          4.0962   -0.5022   -0.0405 C.ar      1 <0>        -0.2262
      5 C4          3.4771    0.7148   -0.0277 C.ar      1 <0>        -0.0301
      6 C5          2.0816    0.7877   -0.0136 C.ar      1 <0>        -0.0807
      7 C6          1.3256   -0.3966   -0.0127 C.ar      1 <0>        -0.0091
      8 C7          1.9677   -1.6271   -0.0259 C.ar      1 <0>        -0.1719
      9 N1          0.0021   -0.0041    0.0020 N.pl3     1 <0>        -0.2049
     10 H1         -0.7951   -0.6077    0.0063 H         1 <0>         0.2665
     11 C8         -0.0164    1.3572    0.0095 C.2       1 <0>         0.0101
     12 N2          1.1989    1.8206    0.0004 N.2       1 <0>        -0.1682
     13 C9         -1.2631    2.2037    0.0203 C.3       1 <0>         0.0636
     14 O2         -2.4140    1.3567    0.0213 O.3       1 <0>        -0.2293
     15 C10        -3.6286    1.9662    0.0306 C.ar      1 <0>         0.1040
     16 C11        -3.7111    3.3510    0.0443 C.ar      1 <0>        -0.2173
     17 C12        -4.9470    3.9682    0.0475 C.ar      1 <0>        -0.0777
     18 C13        -6.1012    3.2069    0.0495 C.ar      1 <0>        -0.1302
     19 C14        -6.0217    1.8266    0.0416 C.ar      1 <0>        -0.0755
     20 C15        -4.7882    1.2046    0.0322 C.ar      1 <0>        -0.1535
     21 C16        -7.4481    3.8828    0.0597 C.3       1 <0>        -0.0937
     22 C17        -7.8968    4.1037    1.5057 C.3       1 <0>        -0.2153
     23 H2         -7.1130    4.5833    2.0919 H         1 <0>         0.1659
     24 C18        -9.1962    4.8939    1.5674 C.2       1 <0>         0.3049
     25 O3         -9.2858    6.0276    1.1473 O.2       1 <0>        -0.2987
     26 N3        -10.2206    4.2587    2.1114 N.am      1 <0>        -0.3665
     27 C19       -10.1444    3.0010    2.5846 C.2       1 <0>         0.2343
     28 O4        -11.0250    2.3384    3.0980 O.2       1 <0>        -0.2520
     29 S1         -8.4470    2.5322    2.2821 S.3       1 <0>         0.0800
     30 H3          5.7881   -3.8848   -0.0751 H         1 <0>         0.1085
     31 H4          5.7593   -2.3389   -0.9569 H         1 <0>         0.0688
     32 H5          5.7768   -2.3481    0.8230 H         1 <0>         0.0689
     33 H6          5.1750   -0.5536   -0.0511 H         1 <0>         0.1387
     34 H7          4.0656    1.6204   -0.0288 H         1 <0>         0.1432
     35 H8          1.3912   -2.5404   -0.0249 H         1 <0>         0.1429
     36 H9         -1.2707    2.8281    0.9137 H         1 <0>         0.1076
     37 H10        -1.2794    2.8378   -0.8662 H         1 <0>         0.1079
     38 H11        -2.8098    3.9461    0.0476 H         1 <0>         0.1406
     39 H12        -5.0117    5.0463    0.0536 H         1 <0>         0.1364
     40 H13        -6.9247    1.2341    0.0425 H         1 <0>         0.1470
     41 H14        -4.7267    0.1264    0.0264 H         1 <0>         0.1466
     42 H15        -7.3762    4.8440   -0.4493 H         1 <0>         0.1180
     43 H16        -8.1745    3.2531   -0.4539 H         1 <0>         0.1062
     44 H17       -11.0701    4.7229    2.1727 H         1 <0>         0.2516
@<TRIPOS>BOND
     1    1    2 1
     2    1   30 1
     3    1   31 1
     4    1   32 1
     5    2    3 1
     6    3    8 ar
     7    3    4 ar
     8    4    5 ar
     9    4   33 1
    10    5    6 ar
    11    5   34 1
    12    6   12 1
    13    6    7 ar
    14    7    8 ar
    15    7    9 1
    16    8   35 1
    17    9   10 1
    18    9   11 1
    19   11   12 2
    20   11   13 1
    21   13   14 1
    22   13   36 1
    23   13   37 1
    24   14   15 1
    25   15   20 ar
    26   15   16 ar
    27   16   17 ar
    28   16   38 1
    29   17   18 ar
    30   17   39 1
    31   18   19 ar
    32   18   21 1
    33   19   20 ar
    34   19   40 1
    35   20   41 1
    36   21   22 1
    37   21   42 1
    38   21   43 1
    39   22   23 1
    40   22   29 1
    41   22   24 1
    42   24   25 2
    43   24   26 am
    44   26   27 am
    45   26   44 1
    46   27   28 2
    47   27   29 1
@<TRIPOS>MOLECULE
ZINC01489524
   46    48     0     0     0
SMALL
USER_CHARGES

@<TRIPOS>ATOM
      1 C1         -5.0998    4.2211    5.9710 C.3       1 <0>        -0.0657
      2 O1         -4.6527    3.9367    4.6439 O.3       1 <0>        -0.1989
      3 C2         -3.8965    2.8194    4.4732 C.ar      1 <0>         0.0768
      4 C3         -3.5917    2.0147    5.5593 C.ar      1 <0>        -0.2073
      5 C4         -2.8228    0.8792    5.3842 C.ar      1 <0>        -0.0974
      6 C5         -2.3568    0.5435    4.1266 C.ar      1 <0>        -0.1387
      7 C6         -2.6576    1.3417    3.0387 C.ar      1 <0>        -0.0826
      8 C7         -3.4230    2.4843    3.2083 C.ar      1 <0>         0.0454
      9 O2         -3.7155    3.2734    2.1401 O.3       1 <0>        -0.2205
     10 C8         -4.9126    2.9727    1.4199 C.3       1 <0>        -0.0561
     11 C9         -2.1479    0.9726    1.6694 C.3       1 <0>         0.0457
     12 N1         -0.9631    1.7754    1.3566 N.pl3     1 <0>        -0.8728
     13 S1          0.0400    1.3237    0.1189 S.o2      1 <0>         2.7667
     14 O3          0.3382   -0.0512    0.3189 O.2       1 <0>        -0.9258
     15 O4          1.0517    2.3178    0.0326 O.2       1 <0>        -0.9109
     16 C10        -0.8938    1.4247   -1.3719 C.ar      1 <0>        -0.7609
     17 C11        -1.1487    0.3011   -2.0971 C.ar      1 <0>         0.0047
     18 C12        -1.8847    0.3619   -3.2782 C.ar      1 <0>        -0.1762
     19 C13        -2.3706    1.5473   -3.7407 C.ar      1 <0>        -0.0484
     20 C14        -2.1281    2.7262   -3.0195 C.ar      1 <0>        -0.1091
     21 C15        -1.3842    2.6648   -1.8153 C.ar      1 <0>         0.0852
     22 C16        -1.1352    3.8458   -1.0949 C.ar      1 <0>        -0.1966
     23 C17        -1.6171    5.0346   -1.5508 C.ar      1 <0>        -0.0418
     24 C18        -2.3539    5.1071   -2.7294 C.ar      1 <0>        -0.2378
     25 C19        -2.6153    3.9731   -3.4681 C.ar      1 <0>         0.1397
     26 N2         -3.3538    4.0565   -4.6466 N.pl3     1 <0>        -0.4126
     27 H1         -5.7119    3.3950    6.3330 H         1 <0>         0.0661
     28 H2         -4.2375    4.3483    6.6255 H         1 <0>         0.0699
     29 H3         -5.6910    5.1368    5.9669 H         1 <0>         0.1105
     30 H4         -3.9545    2.2748    6.5428 H         1 <0>         0.1389
     31 H5         -2.5860    0.2529    6.2315 H         1 <0>         0.1349
     32 H6         -1.7567   -0.3446    3.9937 H         1 <0>         0.1420
     33 H7         -4.8550    1.9575    1.0271 H         1 <0>         0.0551
     34 H8         -5.7694    3.0555    2.0885 H         1 <0>         0.0663
     35 H9         -5.0264    3.6756    0.5946 H         1 <0>         0.1060
     36 H10        -2.9238    1.1660    0.9286 H         1 <0>         0.0859
     37 H11        -1.8850   -0.0851    1.6525 H         1 <0>         0.1021
     38 H12        -0.7661    2.5716    1.8745 H         1 <0>         0.2535
     39 H13        -0.7745   -0.6513   -1.7518 H         1 <0>         0.1529
     40 H14        -2.0731   -0.5441   -3.8350 H         1 <0>         0.1334
     41 H15        -2.9400    1.5795   -4.6578 H         1 <0>         0.1235
     42 H16        -0.5658    3.8095   -0.1779 H         1 <0>         0.1464
     43 H17        -1.4247    5.9364   -0.9884 H         1 <0>         0.1340
     44 H18        -2.7248    6.0628   -3.0692 H         1 <0>         0.1302
     45 H19        -3.5354    3.2556   -5.1628 H         1 <0>         0.2197
     46 H20        -3.6864    4.9154   -4.9507 H         1 <0>         0.2245
@<TRIPOS>BOND
     1    1    2 1
     2    1   27 1
     3    1   28 1
     4    1   29 1
     5    2    3 1
     6    3    8 ar
     7    3    4 ar
     8    4    5 ar
     9    4   30 1
    10    5    6 ar
    11    5   31 1
    12    6    7 ar
    13    6   32 1
    14    7    8 ar
    15    7   11 1
    16    8    9 1
    17    9   10 1
    18   10   33 1
    19   10   34 1
    20   10   35 1
    21   11   12 1
    22   11   36 1
    23   11   37 1
    24   12   13 1
    25   12   38 1
    26   13   14 2
    27   13   15 2
    28   13   16 1
    29   16   21 ar
    30   16   17 ar
    31   17   18 ar
    32   17   39 1
    33   18   19 ar
    34   18   40 1
    35   19   20 ar
    36   19   41 1
    37   20   25 ar
    38   20   21 ar
    39   21   22 ar
    40   22   23 ar
    41   22   42 1
    42   23   24 ar
    43   23   43 1
    44   24   25 ar
    45   24   44 1
    46   25   26 1
    47   26   45 1
    48   26   46 1
@<TRIPOS>MOLECULE
ZINC01490039
   47    49     0     0     0
SMALL
USER_CHARGES

@<TRIPOS>ATOM
      1 C1          4.2399    2.4360   -1.1075 C.3       1 <0>        -0.2003
      2 C2          3.7566    1.8396    0.2160 C.3       1 <0>        -0.1119
      3 H1          3.5975    2.5750    0.8746 H         1 <0>         0.1047
      4 C3          4.8038    0.8998    0.7556 C.ar      1 <0>        -0.0532
      5 C4          5.1859   -0.2044    0.0145 C.ar      1 <0>        -0.1006
      6 C5          6.1474   -1.0660    0.5006 C.ar      1 <0>        -0.1114
      7 C6          6.7274   -0.8277    1.7476 C.ar      1 <0>        -0.1160
      8 C7          6.3336    0.2851    2.4924 C.ar      1 <0>        -0.0660
      9 C8          5.3747    1.1417    1.9924 C.ar      1 <0>        -0.1298
     10 C9          7.7540   -1.7503    2.2774 C.2       1 <0>         0.3611
     11 O1          8.2571   -1.5405    3.3638 O.2       1 <0>        -0.3365
     12 N1          8.1322   -2.8239    1.5557 N.am      1 <0>        -0.3004
     13 O2          9.1154   -3.7075    2.0631 O.3       1 <0>        -0.1798
     14 C10         2.4731    1.0837   -0.0126 C.2       1 <0>         0.2767
     15 O3          2.5006   -0.1132   -0.2083 O.2       1 <0>        -0.2832
     16 C11         1.1898    1.7955    0.0016 C.ar      1 <0>        -0.1673
     17 C12         1.1558    3.1774    0.2278 C.ar      1 <0>        -0.0790
     18 C13        -0.0385    3.8391    0.2414 C.ar      1 <0>        -0.1772
     19 C14        -1.2271    3.1455    0.0308 C.ar      1 <0>         0.0159
     20 C15        -1.2047    1.7702   -0.2013 C.ar      1 <0>         0.0567
     21 C16        -0.0049    1.0944   -0.2108 C.ar      1 <0>        -0.0811
     22 F1         -2.3594    1.1009   -0.4109 F         1 <0>        -0.0979
     23 N2         -2.4392    3.8264    0.0460 N.pl3     1 <0>        -0.1668
     24 C17        -2.2241    5.2947    0.1099 C.3       1 <0>        -0.0969
     25 C18        -3.5669    5.8724   -0.4038 C.3       1 <0>        -0.1644
     26 C19        -3.9649    4.8807   -1.5210 C.3       1 <0>        -0.1719
     27 C20        -3.1990    3.5840   -1.1995 C.3       1 <0>        -0.0874
     28 H2          5.1682    2.9827   -0.9422 H         1 <0>         0.0893
     29 H3          4.4132    1.6343   -1.8255 H         1 <0>         0.0881
     30 H4          3.4824    3.1157   -1.4978 H         1 <0>         0.0800
     31 H5          4.7331   -0.3900   -0.9483 H         1 <0>         0.1475
     32 H6          6.4480   -1.9251   -0.0808 H         1 <0>         0.1227
     33 H7          6.7782    0.4748    3.4582 H         1 <0>         0.1600
     34 H8          5.0688    2.0029    2.5679 H         1 <0>         0.1356
     35 H9          7.7307   -2.9913    0.6887 H         1 <0>         0.2278
     36 H10         9.3206   -4.4472    1.4751 H         1 <0>         0.2055
     37 H11         2.0750    3.7200    0.3921 H         1 <0>         0.1373
     38 H12        -0.0611    4.9047    0.4158 H         1 <0>         0.1475
     39 H13         0.0157    0.0288   -0.3857 H         1 <0>         0.1684
     40 H14        -2.0363    5.6118    1.1357 H         1 <0>         0.1082
     41 H15        -1.4028    5.5920   -0.5422 H         1 <0>         0.0762
     42 H16        -3.4257    6.8741   -0.8096 H         1 <0>         0.0905
     43 H17        -4.3132    5.8784    0.3905 H         1 <0>         0.1015
     44 H18        -3.6633    5.2667   -2.4947 H         1 <0>         0.0873
     45 H19        -5.0397    4.7001   -1.5013 H         1 <0>         0.0962
     46 H20        -2.5131    3.3465   -2.0126 H         1 <0>         0.0759
     47 H21        -3.8997    2.7620   -1.0530 H         1 <0>         0.1182
@<TRIPOS>BOND
     1    1    2 1
     2    1   28 1
     3    1   29 1
     4    1   30 1
     5    2    3 1
     6    2    4 1
     7    2   14 1
     8    4    9 ar
     9    4    5 ar
    10    5    6 ar
    11    5   31 1
    12    6    7 ar
    13    6   32 1
    14    7    8 ar
    15    7   10 1
    16    8    9 ar
    17    8   33 1
    18    9   34 1
    19   10   11 2
    20   10   12 am
    21   12   13 1
    22   12   35 1
    23   13   36 1
    24   14   15 2
    25   14   16 1
    26   16   21 ar
    27   16   17 ar
    28   17   18 ar
    29   17   37 1
    30   18   19 ar
    31   18   38 1
    32   19   20 ar
    33   19   23 1
    34   20   21 ar
    35   20   22 1
    36   21   39 1
    37   23   27 1
    38   23   24 1
    39   24   25 1
    40   24   40 1
    41   24   41 1
    42   25   26 1
    43   25   42 1
    44   25   43 1
    45   26   27 1
    46   26   44 1
    47   26   45 1
    48   27   46 1
    49   27   47 1
@<TRIPOS>MOLECULE
ZINC01490962
   39    42     0     0     0
SMALL
USER_CHARGES

@<TRIPOS>ATOM
      1 C1          0.0300   -3.9941   -2.5773 C.ar      1 <0>        -0.0571
      2 C2          0.0124   -2.6168   -2.5064 C.ar      1 <0>        -0.1503
      3 C3          0.0161   -1.9868   -1.2686 C.ar      1 <0>         0.1260
      4 C4          0.0377   -2.7647   -0.1008 C.ar      1 <0>        -0.2067
      5 C5          0.0548   -4.1551   -0.1849 C.ar      1 <0>        -0.0203
      6 C6          0.0513   -4.7616   -1.4227 C.ar      1 <0>        -0.0969
      7 C7          0.0707   -6.2652   -1.5216 C.3       1 <0>        -0.1412
      8 C8          1.4978   -6.7472   -1.5680 C.2       1 <0>         0.3066
      9 O1          2.4095   -5.9483   -1.5250 O.2       1 <0>        -0.3381
     10 N1          1.7611   -8.0660   -1.6572 N.am      1 <0>        -0.2924
     11 C9          3.0884   -8.5142   -1.7004 C.2       1 <0>         0.0547
     12 C10         4.2343   -7.7036   -1.6647 C.2       1 <0>        -0.2665
     13 C11         5.3167   -8.5123   -1.7230 C.2       1 <0>        -0.0034
     14 N2          4.8778   -9.7862   -1.8026 N.pl3     1 <0>        -0.1854
     15 H1          5.4520  -10.6027   -1.8623 H         1 <0>         0.2798
     16 N3          3.4773   -9.7645   -1.7869 N.2       1 <0>        -0.1251
     17 C12         6.7570   -8.0694   -1.7080 C.3       1 <0>        -0.1074
     18 C13         7.7569   -8.8897   -2.5255 C.3       1 <0>        -0.2126
     19 C14         7.7667   -8.9733   -0.9978 C.3       1 <0>        -0.2110
     20 C15         0.0411   -2.0731    1.2045 C.2       1 <0>         0.3109
     21 O2          0.0600   -2.6969    2.2531 O.2       1 <0>        -0.3060
     22 C16         0.0223   -0.6625    1.1902 C.2       1 <0>        -0.3388
     23 C17         0.0021   -0.0041    0.0020 C.2       1 <0>         0.2409
     24 O3         -0.0059   -0.6405   -1.1760 O.3       1 <0>        -0.1519
     25 O4         -0.0162    1.3456    0.0094 O.3       1 <0>        -0.2556
     26 H2          0.0267   -4.4797   -3.5420 H         1 <0>         0.1407
     27 H3         -0.0044   -2.0290   -3.4123 H         1 <0>         0.1501
     28 H4          0.0718   -4.7539    0.7138 H         1 <0>         0.1603
     29 H5         -0.4292   -6.6930   -0.6525 H         1 <0>         0.1146
     30 H6         -0.4475   -6.5765   -2.4286 H         1 <0>         0.1097
     31 H7          1.0321   -8.7049   -1.6916 H         1 <0>         0.2391
     32 H8          4.2488   -6.6257   -1.5992 H         1 <0>         0.1965
     33 H9          6.9172   -6.9928   -1.6497 H         1 <0>         0.1464
     34 H10         7.3729   -9.7497   -3.0742 H         1 <0>         0.1099
     35 H11         8.5751   -8.3527   -3.0054 H         1 <0>         0.1197
     36 H12         8.5914   -8.4915   -0.4727 H         1 <0>         0.1201
     37 H13         7.3891   -9.8882   -0.5411 H         1 <0>         0.1107
     38 H14         0.0236   -0.1096    2.1179 H         1 <0>         0.1765
     39 H15         0.8617    1.7509    0.0032 H         1 <0>         0.2532
@<TRIPOS>BOND
     1    1    6 ar
     2    1    2 ar
     3    1   26 1
     4    2    3 ar
     5    2   27 1
     6    3   24 1
     7    3    4 ar
     8    4    5 ar
     9    4   20 1
    10    5    6 ar
    11    5   28 1
    12    6    7 1
    13    7    8 1
    14    7   29 1
    15    7   30 1
    16    8    9 2
    17    8   10 am
    18   10   11 1
    19   10   31 1
    20   11   16 2
    21   11   12 1
    22   12   13 2
    23   12   32 1
    24   13   14 1
    25   13   17 1
    26   14   15 1
    27   14   16 1
    28   17   19 1
    29   17   18 1
    30   17   33 1
    31   18   19 1
    32   18   34 1
    33   18   35 1
    34   19   36 1
    35   19   37 1
    36   20   21 2
    37   20   22 1
    38   22   23 2
    39   22   38 1
    40   23   24 1
    41   23   25 1
    42   25   39 1
@<TRIPOS>MOLECULE
ZINC01490962
   39    42     0     0     0
SMALL
USER_CHARGES

@<TRIPOS>ATOM
      1 C1          0.0331   -3.9941   -2.5962 C.ar      1 <0>        -0.0568
      2 C2          0.0155   -2.6167   -2.5266 C.ar      1 <0>        -0.1495
      3 C3          0.0159   -1.9856   -1.2894 C.ar      1 <0>         0.1280
      4 C4          0.0341   -2.7624   -0.1208 C.ar      1 <0>        -0.2063
      5 C5          0.0512   -4.1528   -0.2036 C.ar      1 <0>        -0.0197
      6 C6          0.0511   -4.7605   -1.4408 C.ar      1 <0>        -0.0999
      7 C7          0.0705   -6.2642   -1.5382 C.3       1 <0>        -0.1398
      8 C8          1.4977   -6.7465   -1.5802 C.2       1 <0>         0.3055
      9 O1          2.4094   -5.9477   -1.5354 O.2       1 <0>        -0.3218
     10 N1          1.7610   -8.0654   -1.6674 N.am      1 <0>        -0.3166
     11 C9          3.0883   -8.5138   -1.7065 C.2       1 <0>         0.0713
     12 C10         4.2343   -7.7034   -1.6685 C.2       1 <0>        -0.2720
     13 C11         5.3167   -8.5123   -1.7230 C.2       1 <0>        -0.0299
     14 N2          4.8779   -9.7868   -1.7933 N.2       1 <0>        -0.1213
     15 H1          2.8778  -10.5641   -1.8226 H         1 <0>         0.2718
     16 N3          3.4774   -9.7649   -1.7813 N.pl3     1 <0>        -0.1661
     17 C12         6.7570   -8.0694   -1.7080 C.3       1 <0>        -0.0969
     18 C13         7.7569   -8.8897   -2.5255 C.3       1 <0>        -0.2037
     19 C14         7.7667   -8.9733   -0.9978 C.3       1 <0>        -0.2025
     20 C15         0.0340   -2.0695    1.1838 C.2       1 <0>         0.3109
     21 O2          0.0499   -2.6923    2.2331 O.2       1 <0>        -0.3054
     22 C16         0.0155   -0.6589    1.1681 C.2       1 <0>        -0.3382
     23 C17        -0.0013   -0.0017   -0.0207 C.2       1 <0>         0.2413
     24 O3         -0.0062   -0.6392   -1.1981 O.3       1 <0>        -0.1515
     25 O4         -0.0194    1.3480   -0.0147 O.3       1 <0>        -0.2552
     26 H2          0.0324   -4.4806   -3.5604 H         1 <0>         0.1404
     27 H3          0.0013   -2.0298   -3.4331 H         1 <0>         0.1510
     28 H4          0.0657   -4.7508    0.6958 H         1 <0>         0.1599
     29 H5         -0.4319   -6.6911   -0.6701 H         1 <0>         0.1135
     30 H6         -0.4452   -6.5763   -2.4463 H         1 <0>         0.1086
     31 H7          1.0320   -8.7042   -1.7032 H         1 <0>         0.2270
     32 H8          4.2487   -6.6253   -1.6066 H         1 <0>         0.1944
     33 H9          6.9172   -6.9928   -1.6497 H         1 <0>         0.1341
     34 H10         7.3729   -9.7497   -3.0742 H         1 <0>         0.1241
     35 H11         8.5751   -8.3527   -3.0054 H         1 <0>         0.1076
     36 H12         8.5914   -8.4915   -0.4727 H         1 <0>         0.1080
     37 H13         7.3891   -9.8882   -0.5411 H         1 <0>         0.1245
     38 H14         0.0143   -0.1052    2.0953 H         1 <0>         0.1772
     39 H15         0.8585    1.7532   -0.0188 H         1 <0>         0.2539
@<TRIPOS>BOND
     1    1    6 ar
     2    1    2 ar
     3    1   26 1
     4    2    3 ar
     5    2   27 1
     6    3   24 1
     7    3    4 ar
     8    4    5 ar
     9    4   20 1
    10    5    6 ar
    11    5   28 1
    12    6    7 1
    13    7    8 1
    14    7   29 1
    15    7   30 1
    16    8    9 2
    17    8   10 am
    18   10   11 1
    19   10   31 1
    20   11   12 2
    21   11   16 1
    22   12   32 1
    23   12   13 1
    24   13   17 1
    25   13   14 2
    26   14   16 1
    27   15   16 1
    28   17   19 1
    29   17   18 1
    30   17   33 1
    31   18   19 1
    32   18   34 1
    33   18   35 1
    34   19   36 1
    35   19   37 1
    36   20   21 2
    37   20   22 1
    38   22   23 2
    39   22   38 1
    40   23   24 1
    41   23   25 1
    42   25   39 1
@<TRIPOS>MOLECULE
ZINC01491556
   39    41     0     0     0
SMALL
USER_CHARGES

@<TRIPOS>ATOM
      1 C1          5.5853   -2.5748   -0.9115 C.3       1 <0>        -0.1711
      2 C2          4.6811   -2.8721    0.2569 C.ar      1 <0>        -0.1412
      3 C3          4.8011   -4.0695    0.9355 C.ar      1 <0>        -0.0767
      4 C4          3.9736   -4.3453    2.0072 C.ar      1 <0>        -0.1870
      5 C5          3.0185   -3.4200    2.4053 C.ar      1 <0>         0.1041
      6 C6          2.8986   -2.2153    1.7311 C.ar      1 <0>        -0.2211
      7 C7          3.7269   -1.9421    0.6508 C.ar      1 <0>         0.1069
      8 N1          3.6050   -0.7312   -0.0357 N.pl3     1 <0>        -0.3026
      9 C8          2.5785    0.1458    0.2821 C.ar      1 <0>         0.1421
     10 C9          1.2889   -0.3125    0.5030 C.ar      1 <0>        -0.2521
     11 C10         0.2832    0.5903    0.8189 C.ar      1 <0>         0.0109
     12 N2          0.5143    1.8789    0.9172 N.ar      1 <0>        -0.1864
     13 C11         1.7339    2.3912    0.7173 C.ar      1 <0>         0.0845
     14 C12         2.8143    1.5372    0.3907 C.ar      1 <0>        -0.1491
     15 C13         4.0900    2.0794    0.1824 C.ar      1 <0>         0.0140
     16 C14         4.2774    3.4241    0.2978 C.ar      1 <0>        -0.7478
     17 C15         3.2165    4.2675    0.6185 C.ar      1 <0>        -0.0439
     18 C16         1.9652    3.7733    0.8267 C.ar      1 <0>        -0.1153
     19 S1          5.8816    4.1046    0.0368 S.o2      1 <0>         2.6559
     20 O1          6.5311    3.1812   -0.8263 O.2       1 <0>        -0.9039
     21 O2          5.6447    5.4422   -0.3800 O.2       1 <0>        -0.8936
     22 C17         6.6662    4.0894    1.6722 C.3       1 <0>        -0.8066
     23 O3          2.2052   -3.6930    3.4593 O.3       1 <0>        -0.2910
     24 H1          6.4853   -2.0732   -0.5559 H         1 <0>         0.0869
     25 H2          5.8598   -3.5071   -1.4050 H         1 <0>         0.0898
     26 H3          5.0647   -1.9289   -1.6186 H         1 <0>         0.0751
     27 H4          5.5433   -4.7912    0.6279 H         1 <0>         0.1375
     28 H5          4.0699   -5.2822    2.5356 H         1 <0>         0.1419
     29 H6          2.1592   -1.4922    2.0424 H         1 <0>         0.1565
     30 H7          4.2382   -0.5040   -0.7345 H         1 <0>         0.2518
     31 H8          1.0679   -1.3671    0.4299 H         1 <0>         0.1611
     32 H9         -0.7179    0.2223    0.9889 H         1 <0>         0.1662
     33 H10         4.9199    1.4349   -0.0668 H         1 <0>         0.1480
     34 H11         3.3892    5.3301    0.7037 H         1 <0>         0.1533
     35 H12         1.1534    4.4407    1.0754 H         1 <0>         0.1570
     36 H13         6.7178    3.0649    2.0409 H         1 <0>         0.1352
     37 H14         7.6733    4.4993    1.5959 H         1 <0>         0.1427
     38 H15         6.0788    4.6948    2.3626 H         1 <0>         0.1381
     39 H16         2.5560   -3.4027    4.3124 H         1 <0>         0.2301
@<TRIPOS>BOND
     1    1    2 1
     2    1   24 1
     3    1   25 1
     4    1   26 1
     5    2    7 ar
     6    2    3 ar
     7    3    4 ar
     8    3   27 1
     9    4    5 ar
    10    4   28 1
    11    5    6 ar
    12    5   23 1
    13    6    7 ar
    14    6   29 1
    15    7    8 1
    16    8    9 1
    17    8   30 1
    18    9   14 ar
    19    9   10 ar
    20   10   11 ar
    21   10   31 1
    22   11   12 ar
    23   11   32 1
    24   12   13 ar
    25   13   18 ar
    26   13   14 ar
    27   14   15 ar
    28   15   16 ar
    29   15   33 1
    30   16   17 ar
    31   16   19 1
    32   17   18 ar
    33   17   34 1
    34   18   35 1
    35   19   20 2
    36   19   21 2
    37   19   22 1
    38   22   36 1
    39   22   37 1
    40   22   38 1
    41   23   39 1
@<TRIPOS>MOLECULE
ZINC01493911
   43    45     0     0     0
SMALL
USER_CHARGES

@<TRIPOS>ATOM
      1 C1         -0.9150   -6.4616    1.8342 C.3       1 <0>        -0.0711
      2 O1          0.3520   -6.2399    1.2115 O.3       1 <0>        -0.1623
      3 C2          0.8265   -4.9691    1.2161 C.ar      1 <0>         0.1608
      4 C3          0.0903   -3.9526    1.8066 C.ar      1 <0>        -0.2328
      5 C4          0.5767   -2.6606    1.8147 C.ar      1 <0>        -0.0478
      6 C5          1.7958   -2.3670    1.2256 C.ar      1 <0>        -0.1490
      7 C6          2.5404   -3.3644    0.6344 C.ar      1 <0>        -0.0588
      8 C7          2.0625   -4.6771    0.6237 C.ar      1 <0>        -0.1602
      9 C8          2.8544   -5.7498   -0.0079 C.2       1 <0>         0.3494
     10 O2          2.4352   -6.8911   -0.0152 O.2       1 <0>        -0.3459
     11 N1          4.0425   -5.4646   -0.5768 N.am      1 <0>        -0.3893
     12 C9          4.8288   -6.5298   -1.2040 C.3       1 <0>         0.0491
     13 C10         6.1043   -5.9514   -1.7604 C.ar      1 <0>        -0.0285
     14 C11         7.2590   -5.9877   -1.0014 C.ar      1 <0>        -0.1710
     15 C12         8.4284   -5.4583   -1.5249 C.ar      1 <0>        -0.0946
     16 C13         8.3899   -4.8995   -2.7935 C.ar      1 <0>        -0.1830
     17 C14         7.1969   -4.8938   -3.4909 C.ar      1 <0>        -0.0459
     18 N2          6.1047   -5.4119   -2.9635 N.ar      1 <0>        -0.1540
     19 C15         2.3127   -0.9515    1.2368 C.3       1 <0>        -0.0902
     20 C16         1.8264   -0.2210   -0.0166 C.3       1 <0>        -0.2163
     21 H1          2.1558   -0.7310   -0.9218 H         1 <0>         0.1656
     22 C17         2.2623    1.2372   -0.0129 C.2       1 <0>         0.3051
     23 O3          3.4296    1.5646   -0.0219 O.2       1 <0>        -0.2997
     24 N3          1.2801    2.1226    0.0012 N.am      1 <0>        -0.3667
     25 C18        -0.0222    1.7825    0.0118 C.2       1 <0>         0.2327
     26 O4         -0.9893    2.5190    0.0207 O.2       1 <0>        -0.2526
     27 S1          0.0021   -0.0041    0.0020 S.3       1 <0>         0.0844
     28 H2         -1.1763   -7.5172    1.7604 H         1 <0>         0.1176
     29 H3         -0.8592   -6.1735    2.8839 H         1 <0>         0.0667
     30 H4         -1.6758   -5.8631    1.3331 H         1 <0>         0.0685
     31 H5         -0.8627   -4.1730    2.2646 H         1 <0>         0.1452
     32 H6          0.0018   -1.8735    2.2797 H         1 <0>         0.1434
     33 H7          3.4922   -3.1316    0.1803 H         1 <0>         0.1330
     34 H8          4.3769   -4.5541   -0.5710 H         1 <0>         0.2234
     35 H9          5.0685   -7.2902   -0.4608 H         1 <0>         0.1002
     36 H10         4.2515   -6.9802   -2.0115 H         1 <0>         0.1174
     37 H11         7.2512   -6.4267   -0.0147 H         1 <0>         0.1437
     38 H12         9.3465   -5.4765   -0.9565 H         1 <0>         0.1402
     39 H13         9.2811   -4.4743   -3.2310 H         1 <0>         0.1401
     40 H14         7.1586   -4.4605   -4.4794 H         1 <0>         0.1627
     41 H15         3.4025   -0.9628    1.2508 H         1 <0>         0.1150
     42 H16         1.9432   -0.4367    2.1237 H         1 <0>         0.1044
     43 H17         1.5098    3.0650    0.0038 H         1 <0>         0.2512
@<TRIPOS>BOND
     1    1    2 1
     2    1   28 1
     3    1   29 1
     4    1   30 1
     5    2    3 1
     6    3    8 ar
     7    3    4 ar
     8    4    5 ar
     9    4   31 1
    10    5    6 ar
    11    5   32 1
    12    6    7 ar
    13    6   19 1
    14    7    8 ar
    15    7   33 1
    16    8    9 1
    17    9   10 2
    18    9   11 am
    19   11   12 1
    20   11   34 1
    21   12   13 1
    22   12   35 1
    23   12   36 1
    24   13   18 ar
    25   13   14 ar
    26   14   15 ar
    27   14   37 1
    28   15   16 ar
    29   15   38 1
    30   16   17 ar
    31   16   39 1
    32   17   18 ar
    33   17   40 1
    34   19   20 1
    35   19   41 1
    36   19   42 1
    37   20   21 1
    38   20   27 1
    39   20   22 1
    40   22   23 2
    41   22   24 am
    42   24   25 am
    43   24   43 1
    44   25   26 2
    45   25   27 1
@<TRIPOS>MOLECULE
ZINC01496007
   44    46     0     0     0
SMALL
USER_CHARGES

@<TRIPOS>ATOM
      1 C1          3.2942   -4.9417   -3.2544 C.3       1 <0>        -0.2161
      2 C2          4.2680   -3.7629   -3.1973 C.3       1 <0>        -0.0021
      3 O1          3.6181   -2.6285   -2.5657 O.3       1 <0>        -0.2789
      4 C3          4.3452   -1.5003   -2.4366 C.2       1 <0>         0.3694
      5 O2          5.4912   -1.4661   -2.8410 O.2       1 <0>        -0.3439
      6 C4          3.7526   -0.3124   -1.8073 C.2       1 <0>        -0.0652
      7 C5          4.3823    0.8782   -1.6205 C.2       1 <0>        -0.1137
      8 C6          3.4702    1.7531   -0.9834 C.ar      1 <0>        -0.0936
      9 C7          3.5568    3.0845   -0.5495 C.ar      1 <0>        -0.0845
     10 C8          2.4836    3.6775    0.0481 C.ar      1 <0>        -0.1356
     11 C9          1.2967    2.9786    0.2282 C.ar      1 <0>        -0.1560
     12 C10         1.1857    1.6636   -0.1841 C.ar      1 <0>         0.0494
     13 C11         2.2741    1.0364   -0.7988 C.ar      1 <0>        -0.0003
     14 N1          2.4671   -0.2265   -1.3100 N.pl3     1 <0>        -0.1744
     15 H1          1.8089   -0.9390   -1.3191 H         1 <0>         0.2537
     16 N2         -0.0111    0.9658    0.0074 N.pl3     1 <0>        -0.8124
     17 S1         -1.4606    1.7549   -0.1293 S.o2      1 <0>         2.7670
     18 O3         -2.4740    0.7653   -0.0157 O.2       1 <0>        -0.9139
     19 O4         -1.3938    2.8798    0.7364 O.2       1 <0>        -0.9145
     20 C12        -1.5565    2.3878   -1.7709 C.ar      1 <0>        -0.8002
     21 C13        -1.0796    3.6550   -2.0509 C.ar      1 <0>         0.0181
     22 C14        -1.1485    4.1513   -3.3383 C.ar      1 <0>        -0.2433
     23 C15        -1.7071    3.3815   -4.3483 C.ar      1 <0>         0.1520
     24 C16        -2.1901    2.1125   -4.0635 C.ar      1 <0>        -0.1817
     25 C17        -2.1137    1.6186   -2.7756 C.ar      1 <0>         0.0079
     26 O5         -1.7807    3.8695   -5.6145 O.3       1 <0>        -0.2055
     27 C18        -1.2638    5.1834   -5.8345 C.3       1 <0>        -0.0662
     28 H2          2.9922   -5.2129   -2.2428 H         1 <0>         0.0863
     29 H3          2.4146   -4.6587   -3.8327 H         1 <0>         0.0861
     30 H4          3.7821   -5.7933   -3.7285 H         1 <0>         0.0926
     31 H5          4.5700   -3.4918   -4.2089 H         1 <0>         0.0919
     32 H6          5.1475   -4.0460   -2.6191 H         1 <0>         0.0921
     33 H7          5.3965    1.1140   -1.9072 H         1 <0>         0.1732
     34 H8          4.4725    3.6397   -0.6890 H         1 <0>         0.1354
     35 H9          2.5557    4.7027    0.3798 H         1 <0>         0.1377
     36 H10         0.4551    3.4650    0.6990 H         1 <0>         0.1852
     37 H11         0.0078    0.0188    0.2163 H         1 <0>         0.2479
     38 H12        -0.6488    4.2557   -1.2635 H         1 <0>         0.1513
     39 H13        -0.7718    5.1395   -3.5575 H         1 <0>         0.1426
     40 H14        -2.6257    1.5114   -4.8479 H         1 <0>         0.1507
     41 H15        -2.4892    0.6306   -2.5535 H         1 <0>         0.1520
     42 H16        -0.2059    5.2062   -5.5728 H         1 <0>         0.0729
     43 H17        -1.3842    5.4502   -6.8844 H         1 <0>         0.1136
     44 H18        -1.8070    5.8961   -5.2139 H         1 <0>         0.0730
@<TRIPOS>BOND
     1    1    2 1
     2    1   28 1
     3    1   29 1
     4    1   30 1
     5    2    3 1
     6    2   31 1
     7    2   32 1
     8    3    4 1
     9    4    5 2
    10    4    6 1
    11    6   14 1
    12    6    7 2
    13    7    8 1
    14    7   33 1
    15    8   13 ar
    16    8    9 ar
    17    9   10 ar
    18    9   34 1
    19   10   11 ar
    20   10   35 1
    21   11   12 ar
    22   11   36 1
    23   12   13 ar
    24   12   16 1
    25   13   14 1
    26   14   15 1
    27   16   17 1
    28   16   37 1
    29   17   18 2
    30   17   19 2
    31   17   20 1
    32   20   25 ar
    33   20   21 ar
    34   21   22 ar
    35   21   38 1
    36   22   23 ar
    37   22   39 1
    38   23   24 ar
    39   23   26 1
    40   24   25 ar
    41   24   40 1
    42   25   41 1
    43   26   27 1
    44   27   42 1
    45   27   43 1
    46   27   44 1
@<TRIPOS>MOLECULE
ZINC01501285
   40    42     0     0     0
SMALL
USER_CHARGES

@<TRIPOS>ATOM
      1 C1          0.9395   -4.4960   -7.3799 C.3       1 <0>        -0.2161
      2 C2          1.3894   -3.0951   -7.7992 C.3       1 <0>        -0.0021
      3 O1          2.0452   -2.4422   -6.6803 O.3       1 <0>        -0.2792
      4 C3          2.5046   -1.1911   -6.8852 C.2       1 <0>         0.3693
      5 O2          2.3608   -0.6607   -7.9696 O.2       1 <0>        -0.3436
      6 C4          3.1790   -0.4690   -5.7980 C.2       1 <0>        -0.0657
      7 C5          3.6836    0.7908   -5.8820 C.2       1 <0>        -0.1130
      8 C6          4.2478    1.1141   -4.6249 C.ar      1 <0>        -0.0938
      9 C7          4.8994    2.2522   -4.1263 C.ar      1 <0>        -0.0831
     10 C8          5.3462    2.2718   -2.8378 C.ar      1 <0>        -0.1354
     11 C9          5.1579    1.1758   -2.0053 C.ar      1 <0>        -0.1542
     12 C10         4.5245    0.0390   -2.4724 C.ar      1 <0>         0.0468
     13 C11         4.0589   -0.0024   -3.7904 C.ar      1 <0>         0.0001
     14 N1          3.4026   -0.9614   -4.5272 N.pl3     1 <0>        -0.1748
     15 H1          3.1405   -1.8387   -4.2070 H         1 <0>         0.2535
     16 N2          4.3452   -1.0621   -1.6290 N.pl3     1 <0>        -0.8121
     17 S1          4.0359   -0.8301   -0.0188 S.o2      1 <0>         2.7632
     18 O3          5.0654    0.0159    0.4748 O.2       1 <0>        -0.9116
     19 O4          3.7738   -2.1129    0.5334 O.2       1 <0>        -0.9120
     20 C12         2.5341    0.0842    0.0967 C.ar      1 <0>        -0.7586
     21 C13         1.3242   -0.5803    0.1702 C.ar      1 <0>        -0.0263
     22 C14         0.1460    0.1370    0.2608 C.ar      1 <0>        -0.1506
     23 C15         0.1777    1.5189    0.2779 C.ar      1 <0>        -0.0698
     24 C16         1.3876    2.1834    0.2050 C.ar      1 <0>        -0.1484
     25 C17         2.5658    1.4661    0.1143 C.ar      1 <0>        -0.0217
     26 H2          0.4471   -4.9862   -8.2198 H         1 <0>         0.0927
     27 H3          1.8078   -5.0808   -7.0761 H         1 <0>         0.0864
     28 H4          0.2430   -4.4192   -6.5449 H         1 <0>         0.0858
     29 H5          0.5211   -2.5104   -8.1030 H         1 <0>         0.0918
     30 H6          2.0859   -3.1719   -8.6342 H         1 <0>         0.0923
     31 H7          3.6581    1.4302   -6.7520 H         1 <0>         0.1735
     32 H8          5.0469    3.1124   -4.7624 H         1 <0>         0.1359
     33 H9          5.8468    3.1507   -2.4591 H         1 <0>         0.1384
     34 H10         5.5137    1.2101   -0.9862 H         1 <0>         0.1852
     35 H11         4.4021   -1.9618   -1.9873 H         1 <0>         0.2484
     36 H12         1.2994   -1.6600    0.1564 H         1 <0>         0.1478
     37 H13        -0.7993   -0.3822    0.3178 H         1 <0>         0.1372
     38 H14        -0.7431    2.0793    0.3438 H         1 <0>         0.1344
     39 H15         1.4124    3.2630    0.2180 H         1 <0>         0.1383
     40 H16         3.5111    1.9853    0.0572 H         1 <0>         0.1507
@<TRIPOS>BOND
     1    1    2 1
     2    1   26 1
     3    1   27 1
     4    1   28 1
     5    2    3 1
     6    2   29 1
     7    2   30 1
     8    3    4 1
     9    4    5 2
    10    4    6 1
    11    6   14 1
    12    6    7 2
    13    7    8 1
    14    7   31 1
    15    8   13 ar
    16    8    9 ar
    17    9   10 ar
    18    9   32 1
    19   10   11 ar
    20   10   33 1
    21   11   12 ar
    22   11   34 1
    23   12   13 ar
    24   12   16 1
    25   13   14 1
    26   14   15 1
    27   16   17 1
    28   16   35 1
    29   17   18 2
    30   17   19 2
    31   17   20 1
    32   20   25 ar
    33   20   21 ar
    34   21   22 ar
    35   21   36 1
    36   22   23 ar
    37   22   37 1
    38   23   24 ar
    39   23   38 1
    40   24   25 ar
    41   24   39 1
    42   25   40 1
@<TRIPOS>MOLECULE
ZINC01501298
   37    39     0     0     0
SMALL
USER_CHARGES

@<TRIPOS>ATOM
      1 C1          0.1324    8.7602   -0.0422 C.3       1 <0>        -0.2161
      2 C2         -0.8896    7.6336   -0.2080 C.3       1 <0>        -0.0021
      3 O1         -0.2041    6.3536   -0.2023 O.3       1 <0>        -0.2792
      4 C3         -0.9668    5.2502   -0.3396 C.2       1 <0>         0.3693
      5 O2         -2.1719    5.3554   -0.4608 O.2       1 <0>        -0.3439
      6 C4         -0.3416    3.9208   -0.3429 C.2       1 <0>        -0.0665
      7 C5         -1.0008    2.7394   -0.4796 C.2       1 <0>        -0.1127
      8 C6         -0.0405    1.7011   -0.4271 C.ar      1 <0>        -0.0946
      9 C7         -0.1288    0.3033   -0.5093 C.ar      1 <0>        -0.0829
     10 C8          1.0011   -0.4566   -0.4302 C.ar      1 <0>        -0.1332
     11 C9          2.2457    0.1384   -0.2683 C.ar      1 <0>        -0.1480
     12 C10         2.3619    1.5136   -0.1843 C.ar      1 <0>         0.0425
     13 C11         1.2161    2.3115   -0.2631 C.ar      1 <0>         0.0006
     14 N1          1.0106    3.6712   -0.2137 N.pl3     1 <0>        -0.1754
     15 H1          1.7014    4.3434   -0.1054 H         1 <0>         0.2533
     16 N2          3.6193    2.1039   -0.0217 N.pl3     1 <0>        -0.8102
     17 S1          4.9469    1.4396   -0.7556 S.o2      1 <0>         2.7951
     18 O3          6.0296    2.3289   -0.5183 O.2       1 <0>        -0.9057
     19 O4          4.9844    0.0732   -0.3675 O.2       1 <0>        -0.9037
     20 C12         4.6481    1.4620   -2.4919 C.2       1 <0>        -0.9610
     21 C13         4.9452    2.4264   -3.3969 C.2       1 <0>        -0.0304
     22 C14         4.6141    2.2255   -4.7237 C.2       1 <0>        -0.2108
     23 C15         4.0021    1.0699   -5.0808 C.2       1 <0>        -0.2755
     24 S2          3.8826    0.2169   -3.5171 S.3       1 <0>         0.4623
     25 H2         -0.3822    9.7210   -0.0464 H         1 <0>         0.0927
     26 H3          0.6608    8.6352    0.9030 H         1 <0>         0.0864
     27 H4          0.8466    8.7268   -0.8649 H         1 <0>         0.0858
     28 H5         -1.4180    7.7586   -1.1531 H         1 <0>         0.0918
     29 H6         -1.6038    7.6670    0.6148 H         1 <0>         0.0923
     30 H7         -2.0664    2.6156   -0.6046 H         1 <0>         0.1733
     31 H8         -1.0910   -0.1707   -0.6356 H         1 <0>         0.1358
     32 H9          0.9273   -1.5322   -0.4945 H         1 <0>         0.1394
     33 H10         3.1302   -0.4784   -0.2071 H         1 <0>         0.1861
     34 H11         3.7138    2.9023    0.5209 H         1 <0>         0.2491
     35 H12         5.4336    3.3380   -3.0859 H         1 <0>         0.1540
     36 H13         4.8399    2.9778   -5.4650 H         1 <0>         0.1497
     37 H14         3.6752    0.7472   -6.0583 H         1 <0>         0.1923
@<TRIPOS>BOND
     1    1    2 1
     2    1   25 1
     3    1   26 1
     4    1   27 1
     5    2    3 1
     6    2   28 1
     7    2   29 1
     8    3    4 1
     9    4    5 2
    10    4    6 1
    11    6   14 1
    12    6    7 2
    13    7    8 1
    14    7   30 1
    15    8   13 ar
    16    8    9 ar
    17    9   10 ar
    18    9   31 1
    19   10   11 ar
    20   10   32 1
    21   11   12 ar
    22   11   33 1
    23   12   13 ar
    24   12   16 1
    25   13   14 1
    26   14   15 1
    27   16   17 1
    28   16   34 1
    29   17   18 2
    30   17   19 2
    31   17   20 1
    32   20   24 1
    33   20   21 2
    34   21   22 1
    35   21   35 1
    36   22   23 2
    37   22   36 1
    38   23   24 1
    39   23   37 1
@<TRIPOS>MOLECULE
ZINC01504350
   45    47     0     0     0
SMALL
USER_CHARGES

@<TRIPOS>ATOM
      1 C1          5.2950   -0.6571   -2.0479 C.ar      1 <0>        -0.1580
      2 C2          4.8526   -1.7961   -2.6887 C.ar      1 <0>        -0.0560
      3 C3          3.9527   -2.6489   -2.0477 C.ar      1 <0>        -0.1516
      4 C4          3.5109   -2.3459   -0.7584 C.ar      1 <0>         0.0331
      5 C5          3.9571   -1.2014   -0.1311 C.ar      1 <0>        -0.7674
      6 C6          4.8489   -0.3599   -0.7725 C.ar      1 <0>        -0.0058
      7 S1          3.3957   -0.8137    1.4935 S.o2      1 <0>         2.7612
      8 O1          4.3852    0.0235    2.0761 O.2       1 <0>        -0.9135
      9 O2          2.9898   -2.0396    2.0863 O.2       1 <0>        -0.9059
     10 N1          2.0301    0.1092    1.3324 N.pl3     1 <0>        -0.8359
     11 C7          0.7045   -0.5209    1.2648 C.3       1 <0>        -0.0011
     12 C8         -0.0141   -0.0237    0.0066 C.3       1 <0>        -0.1781
     13 C9         -0.0450    1.5064    0.0126 C.3       1 <0>        -0.1552
     14 C10         1.3865    2.0473   -0.0032 C.3       1 <0>        -0.1783
     15 C11         2.1211    1.5736    1.2549 C.3       1 <0>        -0.0003
     16 C12         3.4746   -3.8709   -2.7282 C.2       1 <0>         0.3488
     17 O3          2.6908   -4.6118   -2.1673 O.2       1 <0>        -0.3481
     18 N2          3.9076   -4.1636   -3.9705 N.am      1 <0>        -0.3239
     19 C13         3.5317   -5.3684   -4.5772 C.ar      1 <0>         0.0491
     20 C14         4.4186   -6.0299   -5.4164 C.ar      1 <0>        -0.1472
     21 C15         4.0491   -7.2206   -6.0101 C.ar      1 <0>        -0.1377
     22 C16         2.7884   -7.7504   -5.7771 C.ar      1 <0>         0.0563
     23 C17         1.9000   -7.0875   -4.9430 C.ar      1 <0>        -0.1370
     24 C18         2.2699   -5.8994   -4.3444 C.ar      1 <0>        -0.1125
     25 O4          2.4235   -8.9203   -6.3662 O.3       1 <0>        -0.2899
     26 H1          5.9913    0.0036   -2.5428 H         1 <0>         0.1409
     27 H2          5.2021   -2.0274   -3.6841 H         1 <0>         0.1278
     28 H3          2.8183   -3.0041   -0.2550 H         1 <0>         0.1760
     29 H4          5.1986    0.5328   -0.2752 H         1 <0>         0.1525
     30 H5          0.1256   -0.2496    2.1476 H         1 <0>         0.0916
     31 H6          0.8168   -1.6041    1.2175 H         1 <0>         0.1099
     32 H7         -1.0340   -0.4081   -0.0058 H         1 <0>         0.0909
     33 H8          0.5177   -0.3733   -0.8783 H         1 <0>         0.0866
     34 H9         -0.5774    1.8623   -0.8694 H         1 <0>         0.0833
     35 H10        -0.5553    1.8558    0.9102 H         1 <0>         0.0847
     36 H11         1.9052    1.6781   -0.8880 H         1 <0>         0.0847
     37 H12         1.3636    3.1369   -0.0225 H         1 <0>         0.0886
     38 H13         1.6576    2.0156    2.1369 H         1 <0>         0.0920
     39 H14         3.1679    1.8723    1.2011 H         1 <0>         0.1044
     40 H15         4.4796   -3.5398   -4.4443 H         1 <0>         0.2315
     41 H16         5.3984   -5.6151   -5.6017 H         1 <0>         0.1312
     42 H17         4.7404   -7.7374   -6.6593 H         1 <0>         0.1416
     43 H18         0.9187   -7.5006   -4.7620 H         1 <0>         0.1450
     44 H19         1.5781   -5.3834   -3.6950 H         1 <0>         0.1677
     45 H20         2.0014   -8.8111   -7.2293 H         1 <0>         0.2244
@<TRIPOS>BOND
     1    1    6 ar
     2    1    2 ar
     3    1   26 1
     4    2    3 ar
     5    2   27 1
     6    3    4 ar
     7    3   16 1
     8    4    5 ar
     9    4   28 1
    10    5    6 ar
    11    5    7 1
    12    6   29 1
    13    7    8 2
    14    7    9 2
    15    7   10 1
    16   10   15 1
    17   10   11 1
    18   11   12 1
    19   11   30 1
    20   11   31 1
    21   12   13 1
    22   12   32 1
    23   12   33 1
    24   13   14 1
    25   13   34 1
    26   13   35 1
    27   14   15 1
    28   14   36 1
    29   14   37 1
    30   15   38 1
    31   15   39 1
    32   16   17 2
    33   16   18 am
    34   18   19 1
    35   18   40 1
    36   19   24 ar
    37   19   20 ar
    38   20   21 ar
    39   20   41 1
    40   21   22 ar
    41   21   42 1
    42   22   23 ar
    43   22   25 1
    44   23   24 ar
    45   23   43 1
    46   24   44 1
    47   25   45 1
@<TRIPOS>MOLECULE
ZINC01504513
   46    49     0     0     0
SMALL
USER_CHARGES

@<TRIPOS>ATOM
      1 C1         -2.4377   -1.9576   -5.5718 C.3       1 <0>        -0.0644
      2 O1         -3.7504   -1.9328   -5.0076 O.3       1 <0>        -0.2091
      3 C2         -3.9810   -1.0271   -4.0223 C.ar      1 <0>         0.1235
      4 C3         -2.9603   -0.1790   -3.6081 C.ar      1 <0>        -0.2356
      5 C4         -3.1871    0.7424   -2.6095 C.ar      1 <0>        -0.0415
      6 C5         -4.4448    0.8259   -2.0103 C.ar      1 <0>        -0.1206
      7 C6         -5.4707   -0.0328   -2.4242 C.ar      1 <0>         0.1443
      8 C7         -5.2342   -0.9511   -3.4329 C.ar      1 <0>        -0.2001
      9 O2         -6.6953    0.0392   -1.8423 O.3       1 <0>        -0.2869
     10 C8         -4.6915    1.8137   -0.9375 C.ar      1 <0>         0.1602
     11 C9         -3.8163    1.9111    0.1630 C.ar      1 <0>        -0.2168
     12 C10        -4.0994    2.8564    1.1484 C.ar      1 <0>         0.0501
     13 N1         -5.1636    3.6297    1.0123 N.ar      1 <0>        -0.2769
     14 C11        -5.9666    3.5121   -0.0358 C.ar      1 <0>         0.2296
     15 N2         -5.7437    2.6269   -0.9943 N.ar      1 <0>        -0.2743
     16 N3         -7.0718    4.3398   -0.1306 N.pl3     1 <0>        -0.3765
     17 C12        -2.6306    1.0287    0.2731 C.ar      1 <0>        -0.0239
     18 C13        -2.7854   -0.3564    0.2328 C.ar      1 <0>        -0.1066
     19 C14        -1.6816   -1.1795    0.3355 C.ar      1 <0>        -0.1286
     20 C15        -0.4187   -0.6266    0.4786 C.ar      1 <0>         0.0330
     21 C16        -0.2584    0.7523    0.5189 C.ar      1 <0>         0.0325
     22 C17        -1.3579    1.5833    0.4120 C.ar      1 <0>        -0.1295
     23 O3          0.9918    1.2817    0.6590 O.3       1 <0>        -0.2167
     24 C18         1.6236    1.0663    1.9225 C.3       1 <0>        -0.0086
     25 C19         2.3154   -0.2874    1.9559 C.3       1 <0>        -0.2294
     26 C20         1.3320   -1.4425    1.8499 C.3       1 <0>        -0.0086
     27 O4          0.6763   -1.4351    0.5804 O.3       1 <0>        -0.2171
     28 H1         -2.2118   -0.9850   -6.0091 H         1 <0>         0.0700
     29 H2         -1.7109   -2.1826   -4.7912 H         1 <0>         0.0733
     30 H3         -2.3890   -2.7239   -6.3453 H         1 <0>         0.1097
     31 H4         -1.9866   -0.2425   -4.0710 H         1 <0>         0.1427
     32 H5         -2.3919    1.3997   -2.2902 H         1 <0>         0.1480
     33 H6         -6.0245   -1.6116   -3.7579 H         1 <0>         0.1556
     34 H7         -7.3024    0.6529   -2.2780 H         1 <0>         0.2437
     35 H8         -3.4554    2.9588    2.0093 H         1 <0>         0.1690
     36 H9         -7.6693    4.2659   -0.8912 H         1 <0>         0.2372
     37 H10        -7.2490    4.9937    0.5636 H         1 <0>         0.2400
     38 H11        -3.7700   -0.7860    0.1214 H         1 <0>         0.1499
     39 H12        -1.8019   -2.2523    0.3040 H         1 <0>         0.1467
     40 H13        -1.2334    2.6557    0.4438 H         1 <0>         0.1466
     41 H14         0.8717    1.1046    2.7107 H         1 <0>         0.0702
     42 H15         2.3614    1.8505    2.0922 H         1 <0>         0.1108
     43 H16         2.8678   -0.3787    2.8910 H         1 <0>         0.0926
     44 H17         3.0188   -0.3452    1.1252 H         1 <0>         0.1107
     45 H18         0.5860   -1.3521    2.6395 H         1 <0>         0.0708
     46 H19         1.8698   -2.3829    1.9704 H         1 <0>         0.1108
@<TRIPOS>BOND
     1    1    2 1
     2    1   28 1
     3    1   29 1
     4    1   30 1
     5    2    3 1
     6    3    8 ar
     7    3    4 ar
     8    4    5 ar
     9    4   31 1
    10    5    6 ar
    11    5   32 1
    12    6    7 ar
    13    6   10 1
    14    7    8 ar
    15    7    9 1
    16    8   33 1
    17    9   34 1
    18   10   15 ar
    19   10   11 ar
    20   11   12 ar
    21   11   17 1
    22   12   13 ar
    23   12   35 1
    24   13   14 ar
    25   14   15 ar
    26   14   16 1
    27   16   36 1
    28   16   37 1
    29   17   22 ar
    30   17   18 ar
    31   18   19 ar
    32   18   38 1
    33   19   20 ar
    34   19   39 1
    35   20   27 1
    36   20   21 ar
    37   21   22 ar
    38   21   23 1
    39   22   40 1
    40   23   24 1
    41   24   25 1
    42   24   41 1
    43   24   42 1
    44   25   26 1
    45   25   43 1
    46   25   44 1
    47   26   27 1
    48   26   45 1
    49   26   46 1
@<TRIPOS>MOLECULE
ZINC01508268
   43    45     0     0     0
SMALL
USER_CHARGES

@<TRIPOS>ATOM
      1 C1          6.6603    9.1218    4.1393 C.3       1 <0>        -0.0336
      2 O1          5.9856    8.7075    2.9221 O.3       1 <0>        -0.2759
      3 C2          5.7736    7.3878    2.7596 C.2       1 <0>         0.4031
      4 O2          6.1424    6.6037    3.6116 O.2       1 <0>        -0.3994
      5 N1          5.1524    6.9364    1.6520 N.am      1 <0>        -0.3140
      6 C3          4.8324    5.5792    1.5330 C.ar      1 <0>         0.1330
      7 C4          4.4907    4.8435    2.6601 C.ar      1 <0>        -0.1535
      8 C5          4.1759    3.5041    2.5395 C.ar      1 <0>        -0.0073
      9 C6          4.2003    2.8958    1.2979 C.ar      1 <0>        -0.7791
     10 C7          4.5457    3.6242    0.1744 C.ar      1 <0>        -0.0113
     11 C8          4.8565    4.9652    0.2877 C.ar      1 <0>        -0.1862
     12 S1          3.7975    1.1870    1.1482 S.o2      1 <0>         2.7627
     13 O3          4.0450    0.5986    2.4177 O.2       1 <0>        -0.9157
     14 O4          4.4236    0.7248   -0.0408 O.2       1 <0>        -0.9155
     15 N2          2.1644    1.0896    0.8916 N.pl3     1 <0>        -0.8835
     16 C9          1.5815    1.6393   -0.3348 C.3       1 <0>         0.0007
     17 C10         0.1582    1.1049   -0.5072 C.3       1 <0>        -0.1195
     18 H1          0.1526    0.0154   -0.4741 H         1 <0>         0.1086
     19 C11        -0.7773    1.6872    0.5805 C.3       1 <0>        -0.1589
     20 C12        -1.8481    2.4772   -0.2376 C.3       1 <0>        -0.0941
     21 H2         -2.4434    3.2011    0.3189 H         1 <0>         0.1158
     22 C13        -0.9549    3.0442   -1.4010 C.3       1 <0>        -0.1620
     23 C14        -0.4622    1.6168   -1.8461 C.3       1 <0>        -0.0887
     24 H3          0.1812    1.5712   -2.7248 H         1 <0>         0.1178
     25 C15        -1.8113    0.8927   -1.9329 C.2       1 <0>        -0.1759
     26 C16        -2.6117    1.3886   -1.0016 C.2       1 <0>        -0.1735
     27 H4          7.6463    8.6592    4.1836 H         1 <0>         0.0879
     28 H5          6.7674   10.2065    4.1441 H         1 <0>         0.1072
     29 H6          6.0738    8.8107    5.0038 H         1 <0>         0.0854
     30 H7          4.9271    7.5523    0.9372 H         1 <0>         0.2447
     31 H8          4.4707    5.3183    3.6300 H         1 <0>         0.1679
     32 H9          3.9100    2.9315    3.4157 H         1 <0>         0.1552
     33 H10         4.5685    3.1451   -0.7932 H         1 <0>         0.1518
     34 H11         5.1219    5.5347   -0.5907 H         1 <0>         0.1378
     35 H12         1.5937    0.6685    1.5535 H         1 <0>         0.2459
     36 H13         2.1875    1.3414   -1.1904 H         1 <0>         0.1000
     37 H14         1.5556    2.7270   -0.2690 H         1 <0>         0.0751
     38 H15        -1.2460    0.8860    1.1518 H         1 <0>         0.0903
     39 H16        -0.2271    2.3583    1.2400 H         1 <0>         0.0885
     40 H17        -1.5414    3.5429   -2.1726 H         1 <0>         0.0969
     41 H18        -0.1405    3.6697   -1.0354 H         1 <0>         0.0886
     42 H19        -2.0637    0.1094   -2.6323 H         1 <0>         0.1420
     43 H20        -3.6294    1.0804   -0.8129 H         1 <0>         0.1410
@<TRIPOS>BOND
     1    1    2 1
     2    1   27 1
     3    1   28 1
     4    1   29 1
     5    2    3 1
     6    3    4 2
     7    3    5 am
     8    5    6 1
     9    5   30 1
    10    6   11 ar
    11    6    7 ar
    12    7    8 ar
    13    7   31 1
    14    8    9 ar
    15    8   32 1
    16    9   10 ar
    17    9   12 1
    18   10   11 ar
    19   10   33 1
    20   11   34 1
    21   12   13 2
    22   12   14 2
    23   12   15 1
    24   15   16 1
    25   15   35 1
    26   16   17 1
    27   16   36 1
    28   16   37 1
    29   17   18 1
    30   17   23 1
    31   17   19 1
    32   19   20 1
    33   19   38 1
    34   19   39 1
    35   20   21 1
    36   20   26 1
    37   20   22 1
    38   22   23 1
    39   22   40 1
    40   22   41 1
    41   23   24 1
    42   23   25 1
    43   25   26 2
    44   25   42 1
    45   26   43 1
@<TRIPOS>MOLECULE
ZINC01516393
   43    45     0     0     0
SMALL
USER_CHARGES

@<TRIPOS>ATOM
      1 C1         -5.4169    1.7166   -2.0794 C.3       1 <0>        -0.2062
      2 C2         -4.2041    2.3902   -2.7247 C.3       1 <0>        -0.1141
      3 C3         -3.2098    2.7647   -1.6559 C.ar      1 <0>        -0.1095
      4 C4         -2.1063    1.9676   -1.4336 C.ar      1 <0>        -0.0749
      5 C5         -1.1887    2.3096   -0.4422 C.ar      1 <0>        -0.0443
      6 C6         -1.3854    3.4680    0.3178 C.ar      1 <0>         0.1114
      7 C7         -2.4928    4.2647    0.0840 C.ar      1 <0>        -0.1861
      8 C8         -3.4043    3.9142   -0.9014 C.ar      1 <0>         0.0947
      9 O1         -4.4908    4.6977   -1.1286 O.3       1 <0>        -0.2874
     10 O2         -0.4916    3.8100    1.2819 O.3       1 <0>        -0.2818
     11 C9         -0.0049    1.4523   -0.1975 C.2       1 <0>         0.0050
     12 C10         0.0008   -0.0065   -0.0590 C.2       1 <0>        -0.1806
     13 C11         1.3127   -0.3733    0.1509 C.2       1 <0>        -0.0491
     14 N1          2.0602    0.7449    0.1453 N.pl3     1 <0>        -0.1803
     15 H1          3.0513    0.7764    0.2748 H         1 <0>         0.2850
     16 N2          1.2398    1.8562   -0.0693 N.2       1 <0>        -0.0689
     17 C12        -1.1666   -0.9048   -0.1307 C.2       1 <0>         0.0748
     18 C13        -1.3028   -1.9811   -0.9794 C.2       1 <0>        -0.2401
     19 C14        -2.5508   -2.5512   -0.7184 C.2       1 <0>        -0.1117
     20 C15        -3.1320   -1.8001    0.2824 C.2       1 <0>        -0.1144
     21 O3         -2.2739   -0.8146    0.6249 O.3       1 <0>        -0.0093
     22 C16        -4.4084   -2.0270    0.8568 C.2       1 <0>         0.3945
     23 O4         -5.0941   -2.9543    0.4686 O.2       1 <0>        -0.3572
     24 O5         -4.8627   -1.2146    1.8341 O.3       1 <0>        -0.2502
     25 C17        -6.1571   -1.5019    2.3671 C.3       1 <0>        -0.0066
     26 C18        -6.4983   -0.4821    3.4555 C.3       1 <0>        -0.2142
     27 H2         -6.1361    1.4457   -2.8524 H         1 <0>         0.0714
     28 H3         -5.0956    0.8188   -1.5514 H         1 <0>         0.0792
     29 H4         -5.8830    2.4053   -1.3748 H         1 <0>         0.0903
     30 H5         -4.5254    3.2880   -3.2527 H         1 <0>         0.0844
     31 H6         -3.7381    1.7015   -3.4293 H         1 <0>         0.0838
     32 H7         -1.9555    1.0766   -2.0251 H         1 <0>         0.1465
     33 H8         -2.6472    5.1595    0.6686 H         1 <0>         0.1516
     34 H9         -4.3449    5.3914   -1.7863 H         1 <0>         0.2275
     35 H10         0.1830    4.4374    0.9882 H         1 <0>         0.2350
     36 H11         1.6761   -1.3802    0.2942 H         1 <0>         0.1801
     37 H12        -0.5812   -2.3203   -1.7079 H         1 <0>         0.1621
     38 H13        -2.9790   -3.4142   -1.2066 H         1 <0>         0.1748
     39 H14        -6.8989   -1.4450    1.5705 H         1 <0>         0.0859
     40 H15        -6.1596   -2.5044    2.7949 H         1 <0>         0.0853
     41 H16        -5.7565   -0.5391    4.2521 H         1 <0>         0.0875
     42 H17        -6.4959    0.5204    3.0277 H         1 <0>         0.0896
     43 H18        -7.4856   -0.7013    3.8621 H         1 <0>         0.0866
@<TRIPOS>BOND
     1    1    2 1
     2    1   27 1
     3    1   28 1
     4    1   29 1
     5    2    3 1
     6    2   30 1
     7    2   31 1
     8    3    8 ar
     9    3    4 ar
    10    4    5 ar
    11    4   32 1
    12    5    6 ar
    13    5   11 1
    14    6    7 ar
    15    6   10 1
    16    7    8 ar
    17    7   33 1
    18    8    9 1
    19    9   34 1
    20   10   35 1
    21   11   16 2
    22   11   12 1
    23   12   13 2
    24   12   17 1
    25   13   14 1
    26   13   36 1
    27   14   15 1
    28   14   16 1
    29   17   21 1
    30   17   18 2
    31   18   19 1
    32   18   37 1
    33   19   20 2
    34   19   38 1
    35   20   21 1
    36   20   22 1
    37   22   23 2
    38   22   24 1
    39   24   25 1
    40   25   26 1
    41   25   39 1
    42   25   40 1
    43   26   41 1
    44   26   42 1
    45   26   43 1
@<TRIPOS>MOLECULE
ZINC01516393
   43    45     0     0     0
SMALL
USER_CHARGES

@<TRIPOS>ATOM
      1 C1         -5.4169    1.7166   -2.0794 C.3       1 <0>        -0.2065
      2 C2         -4.2041    2.3902   -2.7247 C.3       1 <0>        -0.1159
      3 C3         -3.2098    2.7647   -1.6559 C.ar      1 <0>        -0.1037
      4 C4         -2.1063    1.9676   -1.4336 C.ar      1 <0>        -0.0661
      5 C5         -1.1887    2.3096   -0.4422 C.ar      1 <0>        -0.0758
      6 C6         -1.3854    3.4680    0.3178 C.ar      1 <0>         0.0900
      7 C7         -2.4928    4.2647    0.0840 C.ar      1 <0>        -0.1790
      8 C8         -3.4043    3.9142   -0.9014 C.ar      1 <0>         0.0993
      9 O1         -4.4908    4.6977   -1.1286 O.3       1 <0>        -0.2845
     10 O2         -0.4916    3.8100    1.2819 O.3       1 <0>        -0.2805
     11 C9         -0.0049    1.4523   -0.1975 C.2       1 <0>         0.0353
     12 C10         0.0008   -0.0065   -0.0590 C.2       1 <0>        -0.1889
     13 C11         1.3126   -0.3732    0.1515 C.2       1 <0>        -0.0792
     14 N1          2.0601    0.7450    0.1463 N.2       1 <0>        -0.1166
     15 H1          1.5496    2.8058   -0.1168 H         1 <0>         0.2808
     16 N2          1.2397    1.8563   -0.0687 N.pl3     1 <0>        -0.1124
     17 C12        -1.1666   -0.9048   -0.1307 C.2       1 <0>         0.0761
     18 C13        -1.3028   -1.9811   -0.9794 C.2       1 <0>        -0.2384
     19 C14        -2.5508   -2.5512   -0.7184 C.2       1 <0>        -0.1108
     20 C15        -3.1320   -1.8001    0.2824 C.2       1 <0>        -0.1182
     21 O3         -2.2739   -0.8146    0.6249 O.3       1 <0>        -0.0140
     22 C16        -4.4084   -2.0270    0.8568 C.2       1 <0>         0.3945
     23 O4         -5.0941   -2.9543    0.4686 O.2       1 <0>        -0.3576
     24 O5         -4.8627   -1.2146    1.8341 O.3       1 <0>        -0.2515
     25 C17        -6.1571   -1.5019    2.3671 C.3       1 <0>        -0.0067
     26 C18        -6.4983   -0.4821    3.4555 C.3       1 <0>        -0.2142
     27 H2         -6.1361    1.4457   -2.8524 H         1 <0>         0.0744
     28 H3         -5.0956    0.8188   -1.5514 H         1 <0>         0.0814
     29 H4         -5.8830    2.4053   -1.3748 H         1 <0>         0.0906
     30 H5         -4.5254    3.2880   -3.2527 H         1 <0>         0.0858
     31 H6         -3.7381    1.7015   -3.4293 H         1 <0>         0.0863
     32 H7         -1.9555    1.0766   -2.0251 H         1 <0>         0.1530
     33 H8         -2.6472    5.1595    0.6686 H         1 <0>         0.1547
     34 H9         -4.3449    5.3914   -1.7863 H         1 <0>         0.2301
     35 H10         0.1830    4.4374    0.9882 H         1 <0>         0.2209
     36 H11         1.6760   -1.3801    0.2952 H         1 <0>         0.1946
     37 H12        -0.5812   -2.3203   -1.7079 H         1 <0>         0.1642
     38 H13        -2.9790   -3.4142   -1.2066 H         1 <0>         0.1745
     39 H14        -6.8989   -1.4450    1.5705 H         1 <0>         0.0851
     40 H15        -6.1596   -2.5044    2.7949 H         1 <0>         0.0861
     41 H16        -5.7565   -0.5391    4.2521 H         1 <0>         0.0879
     42 H17        -6.4959    0.5204    3.0277 H         1 <0>         0.0881
     43 H18        -7.4856   -0.7013    3.8621 H         1 <0>         0.0867
@<TRIPOS>BOND
     1    1    2 1
     2    1   27 1
     3    1   28 1
     4    1   29 1
     5    2    3 1
     6    2   30 1
     7    2   31 1
     8    3    8 ar
     9    3    4 ar
    10    4    5 ar
    11    4   32 1
    12    5    6 ar
    13    5   11 1
    14    6    7 ar
    15    6   10 1
    16    7    8 ar
    17    7   33 1
    18    8    9 1
    19    9   34 1
    20   10   35 1
    21   11   12 2
    22   11   16 1
    23   12   17 1
    24   12   13 1
    25   13   36 1
    26   13   14 2
    27   14   16 1
    28   15   16 1
    29   17   21 1
    30   17   18 2
    31   18   19 1
    32   18   37 1
    33   19   20 2
    34   19   38 1
    35   20   21 1
    36   20   22 1
    37   22   23 2
    38   22   24 1
    39   24   25 1
    40   25   26 1
    41   25   39 1
    42   25   40 1
    43   26   41 1
    44   26   42 1
    45   26   43 1
@<TRIPOS>MOLECULE
ZINC01516393
   43    45     0     0     0
SMALL
USER_CHARGES

@<TRIPOS>ATOM
      1 C1         -5.4169    1.7166   -2.0794 C.3       1 <0>        -0.2065
      2 C2         -4.2041    2.3902   -2.7247 C.3       1 <0>        -0.1159
      3 C3         -3.2098    2.7647   -1.6559 C.ar      1 <0>        -0.1037
      4 C4         -2.1063    1.9676   -1.4336 C.ar      1 <0>        -0.0661
      5 C5         -1.1887    2.3096   -0.4422 C.ar      1 <0>        -0.0758
      6 C6         -1.3854    3.4680    0.3178 C.ar      1 <0>         0.0900
      7 C7         -2.4928    4.2647    0.0840 C.ar      1 <0>        -0.1790
      8 C8         -3.4043    3.9142   -0.9014 C.ar      1 <0>         0.0993
      9 O1         -4.4908    4.6977   -1.1286 O.3       1 <0>        -0.2845
     10 O2         -0.4916    3.8100    1.2819 O.3       1 <0>        -0.2805
     11 C9         -0.0049    1.4523   -0.1975 C.2       1 <0>         0.0353
     12 C10         0.0008   -0.0065   -0.0590 C.2       1 <0>        -0.1889
     13 C11         1.3126   -0.3732    0.1515 C.2       1 <0>        -0.0792
     14 N1          2.0601    0.7450    0.1463 N.2       1 <0>        -0.1166
     15 H1          1.5496    2.8058   -0.1168 H         1 <0>         0.2808
     16 N2          1.2397    1.8563   -0.0687 N.pl3     1 <0>        -0.1124
     17 C12        -1.1666   -0.9048   -0.1307 C.2       1 <0>         0.0761
     18 C13        -1.3028   -1.9811   -0.9794 C.2       1 <0>        -0.2384
     19 C14        -2.5508   -2.5512   -0.7184 C.2       1 <0>        -0.1108
     20 C15        -3.1320   -1.8001    0.2824 C.2       1 <0>        -0.1182
     21 O3         -2.2739   -0.8146    0.6249 O.3       1 <0>        -0.0140
     22 C16        -4.4084   -2.0270    0.8568 C.2       1 <0>         0.3945
     23 O4         -5.0941   -2.9543    0.4686 O.2       1 <0>        -0.3576
     24 O5         -4.8627   -1.2146    1.8341 O.3       1 <0>        -0.2515
     25 C17        -6.1571   -1.5019    2.3671 C.3       1 <0>        -0.0067
     26 C18        -6.4983   -0.4821    3.4555 C.3       1 <0>        -0.2142
     27 H2         -6.1361    1.4457   -2.8524 H         1 <0>         0.0744
     28 H3         -5.0956    0.8188   -1.5514 H         1 <0>         0.0814
     29 H4         -5.8830    2.4053   -1.3748 H         1 <0>         0.0906
     30 H5         -4.5254    3.2880   -3.2527 H         1 <0>         0.0858
     31 H6         -3.7381    1.7015   -3.4293 H         1 <0>         0.0863
     32 H7         -1.9555    1.0766   -2.0251 H         1 <0>         0.1530
     33 H8         -2.6472    5.1595    0.6686 H         1 <0>         0.1547
     34 H9         -4.3449    5.3914   -1.7863 H         1 <0>         0.2301
     35 H10         0.1830    4.4374    0.9882 H         1 <0>         0.2209
     36 H11         1.6760   -1.3801    0.2952 H         1 <0>         0.1946
     37 H12        -0.5812   -2.3203   -1.7079 H         1 <0>         0.1642
     38 H13        -2.9790   -3.4142   -1.2066 H         1 <0>         0.1745
     39 H14        -6.8989   -1.4450    1.5705 H         1 <0>         0.0851
     40 H15        -6.1596   -2.5044    2.7949 H         1 <0>         0.0861
     41 H16        -5.7565   -0.5391    4.2521 H         1 <0>         0.0879
     42 H17        -6.4959    0.5204    3.0277 H         1 <0>         0.0881
     43 H18        -7.4856   -0.7013    3.8621 H         1 <0>         0.0867
@<TRIPOS>BOND
     1    1    2 1
     2    1   27 1
     3    1   28 1
     4    1   29 1
     5    2    3 1
     6    2   30 1
     7    2   31 1
     8    3    8 ar
     9    3    4 ar
    10    4    5 ar
    11    4   32 1
    12    5    6 ar
    13    5   11 1
    14    6    7 ar
    15    6   10 1
    16    7    8 ar
    17    7   33 1
    18    8    9 1
    19    9   34 1
    20   10   35 1
    21   11   12 2
    22   11   16 1
    23   12   17 1
    24   12   13 1
    25   13   36 1
    26   13   14 2
    27   14   16 1
    28   15   16 1
    29   17   21 1
    30   17   18 2
    31   18   19 1
    32   18   37 1
    33   19   20 2
    34   19   38 1
    35   20   21 1
    36   20   22 1
    37   22   23 2
    38   22   24 1
    39   24   25 1
    40   25   26 1
    41   25   39 1
    42   25   40 1
    43   26   41 1
    44   26   42 1
    45   26   43 1
@<TRIPOS>MOLECULE
ZINC01516501
   40    42     0     0     0
SMALL
USER_CHARGES

@<TRIPOS>ATOM
      1 C1         -6.1572   -0.0382    4.1448 C.3       1 <0>        -0.2137
      2 C2         -5.9106   -1.1664    3.1412 C.3       1 <0>        -0.0072
      3 O1         -4.6648   -0.9483    2.4760 O.3       1 <0>        -0.2541
      4 C3         -4.2957   -1.8602    1.5520 C.2       1 <0>         0.3936
      5 O2         -5.0135   -2.8147    1.3184 O.2       1 <0>        -0.3529
      6 C4         -3.0714   -1.7062    0.8534 C.2       1 <0>        -0.1219
      7 C5         -2.5777   -2.5608   -0.1107 C.2       1 <0>        -0.1118
      8 C6         -1.3547   -2.0334   -0.5312 C.2       1 <0>        -0.2411
      9 C7         -1.1457   -0.8782    0.1894 C.2       1 <0>         0.0742
     10 O3         -2.1855   -0.7003    1.0213 O.3       1 <0>        -0.0190
     11 C8          0.0256    0.0103    0.0720 C.2       1 <0>        -0.1832
     12 C9          1.3506   -0.3518    0.1842 C.2       1 <0>        -0.0478
     13 N1          2.0970    0.7540    0.0132 N.pl3     1 <0>        -0.1810
     14 H1          3.0960    0.7855    0.0434 H         1 <0>         0.2860
     15 N2          1.2626    1.8524   -0.2132 N.2       1 <0>        -0.0616
     16 C10         0.0102    1.4526   -0.1866 C.2       1 <0>         0.0099
     17 C11        -1.1895    2.2992   -0.3866 C.ar      1 <0>        -0.0516
     18 C12        -1.3799    3.4376    0.3950 C.ar      1 <0>        -0.0139
     19 C13        -2.4940    4.2270    0.2025 C.ar      1 <0>        -0.1708
     20 C14        -3.4346    3.8848   -0.7607 C.ar      1 <0>         0.0998
     21 C15        -3.2559    2.7504   -1.5383 C.ar      1 <0>        -0.1941
     22 C16        -2.1372    1.9552   -1.3564 C.ar      1 <0>         0.1182
     23 O4         -1.9602    0.8443   -2.1178 O.3       1 <0>        -0.2857
     24 O5         -4.5329    4.6640   -0.9418 O.3       1 <0>        -0.2904
     25 C17        -0.3651    3.8091    1.4453 C.3       1 <0>        -0.1756
     26 H2         -5.3514   -0.0221    4.8786 H         1 <0>         0.0879
     27 H3         -6.1885    0.9158    3.6185 H         1 <0>         0.0854
     28 H4         -7.1075   -0.2045    4.6522 H         1 <0>         0.0888
     29 H5         -6.7164   -1.1825    2.4073 H         1 <0>         0.0864
     30 H6         -5.8793   -2.1204    3.6674 H         1 <0>         0.0879
     31 H7         -3.0468   -3.4645   -0.4708 H         1 <0>         0.1777
     32 H8         -0.6976   -2.4520   -1.2790 H         1 <0>         0.1688
     33 H9          1.7236   -1.3471    0.3760 H         1 <0>         0.1794
     34 H10        -2.6378    5.1116    0.8052 H         1 <0>         0.1447
     35 H11        -3.9893    2.4875   -2.2862 H         1 <0>         0.1521
     36 H12        -2.4179    0.0610   -1.7832 H         1 <0>         0.2351
     37 H13        -5.2896    4.4102   -0.3959 H         1 <0>         0.2299
     38 H14         0.3910    4.4598    1.0059 H         1 <0>         0.0997
     39 H15        -0.8627    4.3308    2.2628 H         1 <0>         0.0803
     40 H16         0.1103    2.9056    1.8269 H         1 <0>         0.0920
@<TRIPOS>BOND
     1    1    2 1
     2    1   26 1
     3    1   27 1
     4    1   28 1
     5    2    3 1
     6    2   29 1
     7    2   30 1
     8    3    4 1
     9    4    5 2
    10    4    6 1
    11    6   10 1
    12    6    7 2
    13    7    8 1
    14    7   31 1
    15    8    9 2
    16    8   32 1
    17    9   10 1
    18    9   11 1
    19   11   16 1
    20   11   12 2
    21   12   13 1
    22   12   33 1
    23   13   14 1
    24   13   15 1
    25   15   16 2
    26   16   17 1
    27   17   22 ar
    28   17   18 ar
    29   18   19 ar
    30   18   25 1
    31   19   20 ar
    32   19   34 1
    33   20   21 ar
    34   20   24 1
    35   21   22 ar
    36   21   35 1
    37   22   23 1
    38   23   36 1
    39   24   37 1
    40   25   38 1
    41   25   39 1
    42   25   40 1
@<TRIPOS>MOLECULE
ZINC01516501
   40    42     0     0     0
SMALL
USER_CHARGES

@<TRIPOS>ATOM
      1 C1         -6.1572   -0.0382    4.1448 C.3       1 <0>        -0.2136
      2 C2         -5.9106   -1.1664    3.1412 C.3       1 <0>        -0.0072
      3 O1         -4.6648   -0.9483    2.4760 O.3       1 <0>        -0.2555
      4 C3         -4.2957   -1.8602    1.5520 C.2       1 <0>         0.3936
      5 O2         -5.0135   -2.8147    1.3184 O.2       1 <0>        -0.3534
      6 C4         -3.0714   -1.7062    0.8534 C.2       1 <0>        -0.1262
      7 C5         -2.5777   -2.5608   -0.1107 C.2       1 <0>        -0.1108
      8 C6         -1.3547   -2.0334   -0.5312 C.2       1 <0>        -0.2400
      9 C7         -1.1457   -0.8782    0.1894 C.2       1 <0>         0.0762
     10 O3         -2.1855   -0.7003    1.0213 O.3       1 <0>        -0.0241
     11 C8          0.0256    0.0103    0.0720 C.2       1 <0>        -0.1942
     12 C9          1.3506   -0.3519    0.1838 C.2       1 <0>        -0.0781
     13 N1          2.0970    0.7539    0.0126 N.2       1 <0>        -0.1177
     14 H1          1.5689    2.7912   -0.3706 H         1 <0>         0.2892
     15 N2          1.2626    1.8523   -0.2136 N.pl3     1 <0>        -0.1132
     16 C10         0.0102    1.4526   -0.1866 C.2       1 <0>         0.0438
     17 C11        -1.1895    2.2992   -0.3866 C.ar      1 <0>        -0.0900
     18 C12        -1.3799    3.4376    0.3950 C.ar      1 <0>        -0.0282
     19 C13        -2.4940    4.2270    0.2025 C.ar      1 <0>        -0.1681
     20 C14        -3.4346    3.8848   -0.7607 C.ar      1 <0>         0.1071
     21 C15        -3.2559    2.7504   -1.5383 C.ar      1 <0>        -0.1920
     22 C16        -2.1372    1.9552   -1.3564 C.ar      1 <0>         0.1299
     23 O4         -1.9602    0.8443   -2.1178 O.3       1 <0>        -0.2845
     24 O5         -4.5329    4.6640   -0.9418 O.3       1 <0>        -0.2893
     25 C17        -0.3651    3.8091    1.4453 C.3       1 <0>        -0.1858
     26 H2         -5.3514   -0.0221    4.8786 H         1 <0>         0.0882
     27 H3         -6.1885    0.9158    3.6185 H         1 <0>         0.0839
     28 H4         -7.1075   -0.2045    4.6522 H         1 <0>         0.0889
     29 H5         -6.7164   -1.1825    2.4073 H         1 <0>         0.0857
     30 H6         -5.8793   -2.1204    3.6674 H         1 <0>         0.0887
     31 H7         -3.0468   -3.4645   -0.4708 H         1 <0>         0.1774
     32 H8         -0.6976   -2.4520   -1.2790 H         1 <0>         0.1709
     33 H9          1.7236   -1.3473    0.3751 H         1 <0>         0.1937
     34 H10        -2.6378    5.1116    0.8052 H         1 <0>         0.1473
     35 H11        -3.9893    2.4875   -2.2862 H         1 <0>         0.1562
     36 H12        -2.4179    0.0610   -1.7832 H         1 <0>         0.2423
     37 H13        -5.2896    4.4102   -0.3959 H         1 <0>         0.2341
     38 H14         0.3910    4.4598    1.0059 H         1 <0>         0.0838
     39 H15        -0.8627    4.3308    2.2628 H         1 <0>         0.0946
     40 H16         0.1103    2.9056    1.8269 H         1 <0>         0.0966
@<TRIPOS>BOND
     1    1    2 1
     2    1   26 1
     3    1   27 1
     4    1   28 1
     5    2    3 1
     6    2   29 1
     7    2   30 1
     8    3    4 1
     9    4    5 2
    10    4    6 1
    11    6   10 1
    12    6    7 2
    13    7    8 1
    14    7   31 1
    15    8    9 2
    16    8   32 1
    17    9   10 1
    18    9   11 1
    19   11   12 1
    20   11   16 2
    21   12   33 1
    22   12   13 2
    23   13   15 1
    24   14   15 1
    25   15   16 1
    26   16   17 1
    27   17   22 ar
    28   17   18 ar
    29   18   19 ar
    30   18   25 1
    31   19   20 ar
    32   19   34 1
    33   20   21 ar
    34   20   24 1
    35   21   22 ar
    36   21   35 1
    37   22   23 1
    38   23   36 1
    39   24   37 1
    40   25   38 1
    41   25   39 1
    42   25   40 1
@<TRIPOS>MOLECULE
ZINC01516501
   40    42     0     0     0
SMALL
USER_CHARGES

@<TRIPOS>ATOM
      1 C1         -6.1572   -0.0382    4.1448 C.3       1 <0>        -0.2136
      2 C2         -5.9106   -1.1664    3.1412 C.3       1 <0>        -0.0072
      3 O1         -4.6648   -0.9483    2.4760 O.3       1 <0>        -0.2555
      4 C3         -4.2957   -1.8602    1.5520 C.2       1 <0>         0.3936
      5 O2         -5.0135   -2.8147    1.3184 O.2       1 <0>        -0.3534
      6 C4         -3.0714   -1.7062    0.8534 C.2       1 <0>        -0.1262
      7 C5         -2.5777   -2.5608   -0.1107 C.2       1 <0>        -0.1108
      8 C6         -1.3547   -2.0334   -0.5312 C.2       1 <0>        -0.2400
      9 C7         -1.1457   -0.8782    0.1894 C.2       1 <0>         0.0762
     10 O3         -2.1855   -0.7003    1.0213 O.3       1 <0>        -0.0241
     11 C8          0.0256    0.0103    0.0720 C.2       1 <0>        -0.1942
     12 C9          1.3506   -0.3519    0.1838 C.2       1 <0>        -0.0781
     13 N1          2.0970    0.7539    0.0126 N.2       1 <0>        -0.1177
     14 H1          1.5689    2.7912   -0.3706 H         1 <0>         0.2892
     15 N2          1.2626    1.8523   -0.2136 N.pl3     1 <0>        -0.1132
     16 C10         0.0102    1.4526   -0.1866 C.2       1 <0>         0.0438
     17 C11        -1.1895    2.2992   -0.3866 C.ar      1 <0>        -0.0900
     18 C12        -1.3799    3.4376    0.3950 C.ar      1 <0>        -0.0282
     19 C13        -2.4940    4.2270    0.2025 C.ar      1 <0>        -0.1681
     20 C14        -3.4346    3.8848   -0.7607 C.ar      1 <0>         0.1071
     21 C15        -3.2559    2.7504   -1.5383 C.ar      1 <0>        -0.1920
     22 C16        -2.1372    1.9552   -1.3564 C.ar      1 <0>         0.1299
     23 O4         -1.9602    0.8443   -2.1178 O.3       1 <0>        -0.2845
     24 O5         -4.5329    4.6640   -0.9418 O.3       1 <0>        -0.2893
     25 C17        -0.3651    3.8091    1.4453 C.3       1 <0>        -0.1858
     26 H2         -5.3514   -0.0221    4.8786 H         1 <0>         0.0882
     27 H3         -6.1885    0.9158    3.6185 H         1 <0>         0.0839
     28 H4         -7.1075   -0.2045    4.6522 H         1 <0>         0.0889
     29 H5         -6.7164   -1.1825    2.4073 H         1 <0>         0.0857
     30 H6         -5.8793   -2.1204    3.6674 H         1 <0>         0.0887
     31 H7         -3.0468   -3.4645   -0.4708 H         1 <0>         0.1774
     32 H8         -0.6976   -2.4520   -1.2790 H         1 <0>         0.1709
     33 H9          1.7236   -1.3473    0.3751 H         1 <0>         0.1937
     34 H10        -2.6378    5.1116    0.8052 H         1 <0>         0.1473
     35 H11        -3.9893    2.4875   -2.2862 H         1 <0>         0.1562
     36 H12        -2.4179    0.0610   -1.7832 H         1 <0>         0.2423
     37 H13        -5.2896    4.4102   -0.3959 H         1 <0>         0.2341
     38 H14         0.3910    4.4598    1.0059 H         1 <0>         0.0838
     39 H15        -0.8627    4.3308    2.2628 H         1 <0>         0.0946
     40 H16         0.1103    2.9056    1.8269 H         1 <0>         0.0966
@<TRIPOS>BOND
     1    1    2 1
     2    1   26 1
     3    1   27 1
     4    1   28 1
     5    2    3 1
     6    2   29 1
     7    2   30 1
     8    3    4 1
     9    4    5 2
    10    4    6 1
    11    6   10 1
    12    6    7 2
    13    7    8 1
    14    7   31 1
    15    8    9 2
    16    8   32 1
    17    9   10 1
    18    9   11 1
    19   11   12 1
    20   11   16 2
    21   12   33 1
    22   12   13 2
    23   13   15 1
    24   14   15 1
    25   15   16 1
    26   16   17 1
    27   17   22 ar
    28   17   18 ar
    29   18   19 ar
    30   18   25 1
    31   19   20 ar
    32   19   34 1
    33   20   21 ar
    34   20   24 1
    35   21   22 ar
    36   21   35 1
    37   22   23 1
    38   23   36 1
    39   24   37 1
    40   25   38 1
    41   25   39 1
    42   25   40 1
@<TRIPOS>MOLECULE
ZINC01518201
   42    44     0     0     0
SMALL
USER_CHARGES

@<TRIPOS>ATOM
      1 C1         -2.0549    2.4852   -3.4511 C.3       1 <0>        -0.1671
      2 C2         -0.8146    1.6325   -3.5249 C.ar      1 <0>        -0.0960
      3 C3         -0.2944    1.2736   -4.7535 C.ar      1 <0>        -0.0939
      4 C4          0.8437    0.4917   -4.8219 C.ar      1 <0>        -0.1601
      5 C5          1.4645    0.0672   -3.6614 C.ar      1 <0>        -0.0953
      6 C6          0.9513    0.4277   -2.4307 C.ar      1 <0>        -0.2185
      7 C7         -0.1940    1.2076   -2.3594 C.ar      1 <0>         0.0913
      8 O1         -0.7038    1.5592   -1.1497 O.3       1 <0>        -0.1951
      9 C8         -0.0127    1.0858    0.0080 C.3       1 <0>        -0.0430
     10 C9         -0.7288    1.5792    1.2668 C.3       1 <0>         0.0269
     11 H1         -1.7755    1.2768    1.2315 H         1 <0>         0.1616
     12 C10        -0.0638    0.9713    2.5033 C.3       1 <0>        -0.0509
     13 N1         -0.8211    1.3473    3.6997 N.pl3     1 <0>        -0.0880
     14 C11        -0.5663    2.3892    4.5151 C.2       1 <0>        -0.0091
     15 N2         -1.4475    2.4188    5.4821 N.2       1 <0>        -0.1968
     16 C12        -2.3078    1.4070    5.3415 C.2       1 <0>         0.1009
     17 C13        -1.9348    0.7047    4.2023 C.2       1 <0>        -0.2589
     18 C14        -2.6801   -0.4314    3.8200 C.2       1 <0>         0.3890
     19 O2         -2.3701   -1.0665    2.8280 O.2       1 <0>        -0.3711
     20 N3         -3.7435   -0.8024    4.5631 N.am      1 <0>        -0.3343
     21 H2         -4.2768   -1.6043    4.2938 H         1 <0>         0.2848
     22 C15        -4.0967   -0.1102    5.6599 C.2       1 <0>         0.4090
     23 O3         -5.0613   -0.4737    6.3050 O.2       1 <0>        -0.3763
     24 N4         -3.4098    0.9758    6.0619 N.am      1 <0>        -0.2373
     25 C16        -3.8281    1.7022    7.2634 C.3       1 <0>        -0.0519
     26 O4         -0.6468    3.0043    1.3339 O.3       1 <0>        -0.3244
     27 H3         -1.7718    3.5377   -3.4346 H         1 <0>         0.0865
     28 H4         -2.6816    2.2912   -4.3216 H         1 <0>         0.0770
     29 H5         -2.6086    2.2436   -2.5438 H         1 <0>         0.0963
     30 H6         -0.7770    1.6044   -5.6613 H         1 <0>         0.1357
     31 H7          1.2488    0.2122   -5.7832 H         1 <0>         0.1307
     32 H8          2.3536   -0.5432   -3.7174 H         1 <0>         0.1291
     33 H9          1.4391    0.0996   -1.5246 H         1 <0>         0.1285
     34 H10         0.0021   -0.0041    0.0020 H         1 <0>         0.0912
     35 H11         1.0099    1.4631    0.0003 H         1 <0>         0.0711
     36 H12        -0.0472   -0.1146    2.4102 H         1 <0>         0.1391
     37 H13         0.9570    1.3444    2.5873 H         1 <0>         0.0997
     38 H14         0.2430    3.0933    4.3898 H         1 <0>         0.2120
     39 H15        -4.5404    2.4800    6.9883 H         1 <0>         0.0880
     40 H16        -4.2981    1.0096    7.9616 H         1 <0>         0.1113
     41 H17        -2.9569    2.1575    7.7344 H         1 <0>         0.1042
     42 H18         0.2576    3.3450    1.3680 H         1 <0>         0.2040
@<TRIPOS>BOND
     1    1    2 1
     2    1   27 1
     3    1   28 1
     4    1   29 1
     5    2    7 ar
     6    2    3 ar
     7    3    4 ar
     8    3   30 1
     9    4    5 ar
    10    4   31 1
    11    5    6 ar
    12    5   32 1
    13    6    7 ar
    14    6   33 1
    15    7    8 1
    16    8    9 1
    17    9   10 1
    18    9   34 1
    19    9   35 1
    20   10   11 1
    21   10   12 1
    22   10   26 1
    23   12   13 1
    24   12   36 1
    25   12   37 1
    26   13   17 1
    27   13   14 1
    28   14   15 2
    29   14   38 1
    30   15   16 1
    31   16   24 1
    32   16   17 2
    33   17   18 1
    34   18   19 2
    35   18   20 am
    36   20   21 1
    37   20   22 am
    38   22   23 2
    39   22   24 am
    40   24   25 1
    41   25   39 1
    42   25   40 1
    43   25   41 1
    44   26   42 1
@<TRIPOS>MOLECULE
ZINC01518201
   43    45     0     0     0
SMALL
USER_CHARGES

@<TRIPOS>ATOM
      1 C1         -2.0549    2.4852   -3.4511 C.3       1 <0>        -0.1686
      2 C2         -0.8146    1.6325   -3.5249 C.ar      1 <0>        -0.0878
      3 C3         -0.2944    1.2736   -4.7535 C.ar      1 <0>        -0.0882
      4 C4          0.8437    0.4917   -4.8219 C.ar      1 <0>        -0.1449
      5 C5          1.4645    0.0672   -3.6614 C.ar      1 <0>        -0.0917
      6 C6          0.9513    0.4277   -2.4307 C.ar      1 <0>        -0.2175
      7 C7         -0.1940    1.2076   -2.3594 C.ar      1 <0>         0.0737
      8 O1         -0.7038    1.5592   -1.1497 O.3       1 <0>        -0.1964
      9 C8         -0.0127    1.0858    0.0080 C.3       1 <0>        -0.0330
     10 C9         -0.7288    1.5792    1.2668 C.3       1 <0>         0.0243
     11 H1         -1.7755    1.2768    1.2315 H         1 <0>         0.1640
     12 C10        -0.0638    0.9713    2.5033 C.3       1 <0>        -0.0706
     13 N1         -0.8211    1.3473    3.6997 N.pl3     1 <0>        -0.0013
     14 C11        -0.5663    2.3892    4.5151 C.cat     1 <0>         0.0418
     15 C12        -2.3078    1.4070    5.3415 C.2       1 <0>         0.1282
     16 C13        -1.9348    0.7047    4.2023 C.2       1 <0>        -0.1838
     17 C14        -2.6801   -0.4314    3.8200 C.2       1 <0>         0.3783
     18 O2         -2.3701   -1.0665    2.8280 O.2       1 <0>        -0.2973
     19 N2         -3.7435   -0.8024    4.5631 N.am      1 <0>        -0.3220
     20 H2         -4.2768   -1.6043    4.2938 H         1 <0>         0.3157
     21 C15        -4.0967   -0.1102    5.6599 C.2       1 <0>         0.4084
     22 O3         -5.0613   -0.4737    6.3050 O.2       1 <0>        -0.2962
     23 N3         -3.4098    0.9758    6.0619 N.am      1 <0>        -0.2439
     24 C16        -3.8281    1.7022    7.2634 C.3       1 <0>        -0.0718
     25 O4         -0.6468    3.0043    1.3339 O.3       1 <0>        -0.3268
     26 H3         -1.7718    3.5377   -3.4346 H         1 <0>         0.0896
     27 H4         -2.6816    2.2912   -4.3216 H         1 <0>         0.0865
     28 H5         -2.6086    2.2436   -2.5438 H         1 <0>         0.0881
     29 H6         -0.7770    1.6044   -5.6613 H         1 <0>         0.1452
     30 H7          1.2488    0.2122   -5.7832 H         1 <0>         0.1412
     31 H8          2.3536   -0.5432   -3.7174 H         1 <0>         0.1364
     32 H9          1.4391    0.0996   -1.5246 H         1 <0>         0.1208
     33 H10         0.0021   -0.0041    0.0020 H         1 <0>         0.0960
     34 H11         1.0099    1.4631    0.0003 H         1 <0>         0.0797
     35 H12        -0.0472   -0.1146    2.4102 H         1 <0>         0.1698
     36 H13         0.9570    1.3444    2.5873 H         1 <0>         0.1272
     37 H14         0.2430    3.0933    4.3898 H         1 <0>         0.2556
     38 H15        -4.5404    2.4800    6.9883 H         1 <0>         0.1137
     39 H16        -4.2981    1.0096    7.9616 H         1 <0>         0.1547
     40 H17        -2.9569    2.1575    7.7344 H         1 <0>         0.0823
     41 H18         0.2576    3.3450    1.3680 H         1 <0>         0.2149
     42 N4         -1.4475    2.4202    5.4836 N.pl3     1 <0>        -0.1150
     43 H19        -1.4736    3.1169    6.2374 H         1 <0>         0.3206
@<TRIPOS>BOND
     1    1    2 1
     2    1   26 1
     3    1   27 1
     4    1   28 1
     5    2    7 ar
     6    2    3 ar
     7    3    4 ar
     8    3   29 1
     9    4    5 ar
    10    4   30 1
    11    5    6 ar
    12    5   31 1
    13    6    7 ar
    14    6   32 1
    15    7    8 1
    16    8    9 1
    17    9   10 1
    18    9   33 1
    19    9   34 1
    20   10   11 1
    21   10   12 1
    22   10   25 1
    23   12   13 1
    24   12   35 1
    25   12   36 1
    26   13   16 1
    27   13   14 1
    28   14   37 1
    29   14   42 2
    30   15   23 1
    31   15   16 2
    32   15   42 1
    33   16   17 1
    34   17   18 2
    35   17   19 am
    36   19   20 1
    37   19   21 am
    38   21   22 2
    39   21   23 am
    40   23   24 1
    41   24   38 1
    42   24   39 1
    43   24   40 1
    44   25   41 1
    45   42   43 1
@<TRIPOS>MOLECULE
ZINC01542456
   39    42     0     0     0
SMALL
USER_CHARGES

@<TRIPOS>ATOM
      1 C1         -3.5683  -10.3813   -0.0229 C.ar      1 <0>        -0.1664
      2 C2         -4.0354   -9.0849   -0.0106 C.ar      1 <0>        -0.0594
      3 C3         -3.1334   -8.0248   -0.0129 C.ar      1 <0>        -0.0653
      4 C4         -1.7511   -8.2711   -0.0284 C.ar      1 <0>         0.0340
      5 C5         -1.2956   -9.5827   -0.0410 C.ar      1 <0>        -0.1472
      6 C6         -2.2000  -10.6301   -0.0378 C.ar      1 <0>         0.0914
      7 O1         -1.7477  -11.9118   -0.0498 O.3       1 <0>        -0.2864
      8 O2         -1.1100   -7.0818   -0.0276 O.3       1 <0>        -0.0676
      9 C7         -1.9760   -6.0554   -0.0126 C.2       1 <0>         0.1029
     10 C8         -3.2725   -6.5596   -0.0025 C.2       1 <0>        -0.2226
     11 C9         -4.4041   -5.6440    0.0142 C.2       1 <0>         0.3745
     12 O3         -5.5391   -6.0875    0.0231 O.2       1 <0>        -0.3584
     13 N1         -4.2088   -4.3124    0.0195 N.am      1 <0>        -0.2877
     14 H1         -5.0013   -3.7027    0.0306 H         1 <0>         0.2594
     15 C10        -2.9389   -3.7681    0.0099 C.ar      1 <0>         0.1492
     16 C11        -1.8033   -4.5981   -0.0054 C.ar      1 <0>        -0.1190
     17 C12        -0.5238   -4.0330   -0.0151 C.ar      1 <0>        -0.0244
     18 C13        -0.3787   -2.6755   -0.0144 C.ar      1 <0>        -0.2549
     19 C14        -1.4982   -1.8472    0.0064 C.ar      1 <0>         0.1547
     20 C15        -2.7722   -2.3879    0.0157 C.ar      1 <0>        -0.2245
     21 O4         -1.3386   -0.4987    0.0122 O.3       1 <0>        -0.2033
     22 C16         0.0021   -0.0041    0.0020 C.3       1 <0>        -0.0135
     23 C17        -0.0187    1.5258    0.0104 C.3       1 <0>        -0.1627
     24 C18         1.4167    2.0553   -0.0004 C.3       1 <0>         0.0035
     25 O5          1.3973    3.4842    0.0074 O.3       1 <0>        -0.3492
     26 H2         -4.2660  -11.2056   -0.0212 H         1 <0>         0.1469
     27 H3         -5.0979   -8.8921    0.0015 H         1 <0>         0.1590
     28 H4         -0.2349   -9.7855   -0.0530 H         1 <0>         0.1494
     29 H5         -1.6078  -12.2877    0.8300 H         1 <0>         0.2298
     30 H6          0.3484   -4.6698   -0.0265 H         1 <0>         0.1492
     31 H7          0.6101   -2.2414   -0.0263 H         1 <0>         0.1419
     32 H8         -3.6353   -1.7389    0.0278 H         1 <0>         0.1557
     33 H9          0.5123   -0.3556   -0.8948 H         1 <0>         0.0787
     34 H10         0.5293   -0.3651    0.8851 H         1 <0>         0.0785
     35 H11        -0.5459    1.8868   -0.8726 H         1 <0>         0.1105
     36 H12        -0.5289    1.8773    0.9072 H         1 <0>         0.1104
     37 H13         1.9439    1.6943    0.8826 H         1 <0>         0.0587
     38 H14         1.9269    1.7038   -0.8972 H         1 <0>         0.0589
     39 H15         2.2753    3.8895    0.0012 H         1 <0>         0.2153
@<TRIPOS>BOND
     1    1    6 ar
     2    1    2 ar
     3    1   26 1
     4    2    3 ar
     5    2   27 1
     6    3   10 1
     7    3    4 ar
     8    4    5 ar
     9    4    8 1
    10    5    6 ar
    11    5   28 1
    12    6    7 1
    13    7   29 1
    14    8    9 1
    15    9   16 1
    16    9   10 2
    17   10   11 1
    18   11   12 2
    19   11   13 am
    20   13   14 1
    21   13   15 1
    22   15   20 ar
    23   15   16 ar
    24   16   17 ar
    25   17   18 ar
    26   17   30 1
    27   18   19 ar
    28   18   31 1
    29   19   20 ar
    30   19   21 1
    31   20   32 1
    32   21   22 1
    33   22   23 1
    34   22   33 1
    35   22   34 1
    36   23   24 1
    37   23   35 1
    38   23   36 1
    39   24   25 1
    40   24   37 1
    41   24   38 1
    42   25   39 1
@<TRIPOS>MOLECULE
ZINC01556760
   38    40     0     0     0
SMALL
USER_CHARGES

@<TRIPOS>ATOM
      1 C1          0.3649    2.7806    1.2226 C.3       1 <0>        -0.2141
      2 C2          0.8686    2.0544   -0.0263 C.3       1 <0>        -0.0058
      3 O1          0.0234    2.3934   -1.1573 O.3       1 <0>        -0.2408
      4 C3          0.3335    1.8329   -2.3419 C.2       1 <0>         0.3718
      5 O2          1.2834    1.0819   -2.4280 O.2       1 <0>        -0.3171
      6 C4         -0.4855    2.1333   -3.5413 C.ar      1 <0>         0.1349
      7 N1         -1.5235    2.9550   -3.4178 N.ar      1 <0>        -0.2780
      8 C5         -2.2837    3.2600   -4.4605 C.ar      1 <0>         0.2693
      9 C6         -1.9742    2.6824   -5.7093 C.ar      1 <0>        -0.3180
     10 C7         -2.5332    2.7589   -7.0013 C.2       1 <0>        -0.0585
     11 N2         -1.8334    2.0049   -7.8023 N.2       1 <0>        -0.0121
     12 N3         -0.7900    1.3994   -7.0906 N.pl3     1 <0>        -0.0889
     13 C8         -0.8662    1.8120   -5.7891 C.ar      1 <0>         0.1474
     14 N4         -0.1592    1.5697   -4.6917 N.ar      1 <0>        -0.2203
     15 C9          0.1656    0.5233   -7.6201 C.ar      1 <0>         0.0682
     16 C10         1.4705    0.5475   -7.1455 C.ar      1 <0>        -0.1150
     17 C11         2.4094   -0.3212   -7.6664 C.ar      1 <0>        -0.1127
     18 C12         2.0539   -1.2071   -8.6670 C.ar      1 <0>        -0.1273
     19 C13         0.7566   -1.2300   -9.1454 C.ar      1 <0>        -0.1203
     20 C14        -0.1883   -0.3676   -8.6250 C.ar      1 <0>        -0.1208
     21 C15        -3.7376    3.5763   -7.3915 C.3       1 <0>         0.0081
     22 C16        -3.3202    4.9579   -7.6808 C.1       1 <0>        -0.1530
     23 N5         -2.9981    6.0242   -7.9040 N.1       1 <0>        -0.0164
     24 N6         -3.3571    4.1195   -4.3255 N.pl3     1 <0>        -0.3753
     25 H1         -0.6607    2.4760    1.4312 H         1 <0>         0.0881
     26 H2          0.9994    2.5261    2.0716 H         1 <0>         0.0894
     27 H3          0.3972    3.8571    1.0547 H         1 <0>         0.0885
     28 H4          0.8363    0.9779    0.1416 H         1 <0>         0.0898
     29 H5          1.8942    2.3590   -0.2349 H         1 <0>         0.0899
     30 H6          1.7498    1.2419   -6.3669 H         1 <0>         0.1602
     31 H7          3.4234   -0.3057   -7.2949 H         1 <0>         0.1404
     32 H8          2.7908   -1.8827   -9.0753 H         1 <0>         0.1334
     33 H9          0.4822   -1.9228   -9.9272 H         1 <0>         0.1360
     34 H10        -1.2013   -0.3862   -8.9988 H         1 <0>         0.1467
     35 H11        -4.1989    3.1428   -8.2789 H         1 <0>         0.1384
     36 H12        -4.4566    3.5779   -6.5723 H         1 <0>         0.1180
     37 H13        -3.8472    4.4102   -5.1104 H         1 <0>         0.2336
     38 H14        -3.6205    4.4321   -3.4459 H         1 <0>         0.2423
@<TRIPOS>BOND
     1    1    2 1
     2    1   25 1
     3    1   26 1
     4    1   27 1
     5    2    3 1
     6    2   28 1
     7    2   29 1
     8    3    4 1
     9    4    5 2
    10    4    6 1
    11    6   14 ar
    12    6    7 ar
    13    7    8 ar
    14    8    9 ar
    15    8   24 1
    16    9   13 ar
    17    9   10 1
    18   10   11 2
    19   10   21 1
    20   11   12 1
    21   12   13 1
    22   12   15 1
    23   13   14 ar
    24   15   20 ar
    25   15   16 ar
    26   16   17 ar
    27   16   30 1
    28   17   18 ar
    29   17   31 1
    30   18   19 ar
    31   18   32 1
    32   19   20 ar
    33   19   33 1
    34   20   34 1
    35   21   22 1
    36   21   35 1
    37   21   36 1
    38   22   23 3
    39   24   37 1
    40   24   38 1
@<TRIPOS>MOLECULE
ZINC01559383
   45    47     0     0     0
SMALL
USER_CHARGES

@<TRIPOS>ATOM
      1 C1         -1.8080    1.7301    2.5318 C.3       1 <0>        -0.0442
      2 N1         -1.5488    1.8508    1.0950 N.pl3     1 <0>        -0.3461
      3 C2         -0.3363    1.2652    0.5177 C.3       1 <0>         0.0478
      4 C3         -0.6170   -0.1528    0.0919 C.2       1 <0>         0.0519
      5 C4         -0.5672   -0.4816   -1.1906 C.2       1 <0>        -0.1511
      6 N2         -0.4806   -1.8302   -1.5661 N.am      1 <0>        -0.2328
      7 C5         -1.1359   -2.3740   -2.6075 C.2       1 <0>         0.3587
      8 O1         -1.8849   -1.7840   -3.3599 O.2       1 <0>        -0.3020
      9 C6         -0.7898   -3.8092   -2.6844 C.ar      1 <0>        -0.1306
     10 C7         -1.1503   -4.8476   -3.5277 C.ar      1 <0>        -0.0633
     11 C8         -0.6350   -6.1169   -3.3141 C.ar      1 <0>        -0.1191
     12 C9          0.2350   -6.3527   -2.2664 C.ar      1 <0>        -0.1176
     13 C10         0.6042   -5.3233   -1.4143 C.ar      1 <0>        -0.0694
     14 C11         0.0973   -4.0498   -1.6156 C.ar      1 <0>        -0.1254
     15 C12         0.2642   -2.7514   -0.9286 C.2       1 <0>         0.3770
     16 O2          0.9576   -2.5502    0.0482 O.2       1 <0>        -0.3141
     17 N3         -0.9296   -1.1203    1.0489 N.pl3     1 <0>        -0.2634
     18 O3         -1.3245   -2.4176    0.6415 O.3       1 <0>        -0.2072
     19 C13        -2.4593    2.5254    0.2740 C.ar      1 <0>         0.0878
     20 C14        -2.2112    2.6450   -1.0871 C.ar      1 <0>        -0.1628
     21 C15        -3.1132    3.3059   -1.8976 C.ar      1 <0>        -0.1702
     22 C16        -4.2608    3.8606   -1.3505 C.ar      1 <0>         0.0469
     23 C17        -4.5068    3.7462    0.0097 C.ar      1 <0>        -0.1136
     24 C18        -3.6087    3.0806    0.8207 C.ar      1 <0>        -0.1685
     25 O4         -5.1455    4.5166   -2.1484 O.3       1 <0>        -0.2162
     26 C19        -4.8289    4.5964   -3.5396 C.3       1 <0>        -0.0617
     27 H1         -1.3686    2.5807    3.0530 H         1 <0>         0.0672
     28 H2         -2.8838    1.7131    2.7068 H         1 <0>         0.0890
     29 H3         -1.3646    0.8069    2.9047 H         1 <0>         0.0633
     30 H4          0.4596    1.2702    1.2624 H         1 <0>         0.1019
     31 H5         -0.0272    1.8503   -0.3485 H         1 <0>         0.1193
     32 H6         -0.5933    0.2889   -1.9470 H         1 <0>         0.1635
     33 H7         -1.8295   -4.6691   -4.3482 H         1 <0>         0.1490
     34 H8         -0.9152   -6.9269   -3.9712 H         1 <0>         0.1388
     35 H9          0.6297   -7.3458   -2.1102 H         1 <0>         0.1381
     36 H10         1.2839   -5.5134   -0.5968 H         1 <0>         0.1465
     37 H11        -0.8762   -0.9037    1.9929 H         1 <0>         0.2371
     38 H12        -1.5943   -2.9936    1.3699 H         1 <0>         0.2153
     39 H13        -1.3151    2.2176   -1.5123 H         1 <0>         0.1305
     40 H14        -2.9226    3.3951   -2.9569 H         1 <0>         0.1364
     41 H15        -5.4008    4.1781    0.4348 H         1 <0>         0.1417
     42 H16        -3.8004    2.9917    1.8798 H         1 <0>         0.1339
     43 H17        -3.8790    5.1156   -3.6669 H         1 <0>         0.0642
     44 H18        -4.7516    3.5908   -3.9529 H         1 <0>         0.0689
     45 H19        -5.6147    5.1438   -4.0602 H         1 <0>         0.1046
@<TRIPOS>BOND
     1    1    2 1
     2    1   27 1
     3    1   28 1
     4    1   29 1
     5    2    3 1
     6    2   19 1
     7    3    4 1
     8    3   30 1
     9    3   31 1
    10    4    5 2
    11    4   17 1
    12    5    6 1
    13    5   32 1
    14    6   15 am
    15    6    7 am
    16    7    8 2
    17    7    9 1
    18    9   14 ar
    19    9   10 ar
    20   10   11 ar
    21   10   33 1
    22   11   12 ar
    23   11   34 1
    24   12   13 ar
    25   12   35 1
    26   13   14 ar
    27   13   36 1
    28   14   15 1
    29   15   16 2
    30   17   18 1
    31   17   37 1
    32   18   38 1
    33   19   24 ar
    34   19   20 ar
    35   20   21 ar
    36   20   39 1
    37   21   22 ar
    38   21   40 1
    39   22   23 ar
    40   22   25 1
    41   23   24 ar
    42   23   41 1
    43   24   42 1
    44   25   26 1
    45   26   43 1
    46   26   44 1
    47   26   45 1
@<TRIPOS>MOLECULE
ZINC01562968
   47    49     0     0     0
SMALL
USER_CHARGES

@<TRIPOS>ATOM
      1 C1          6.5882    5.1769   11.0097 C.3       1 <0>        -0.2170
      2 C2          5.9647    4.9996    9.6238 C.3       1 <0>         0.0038
      3 O1          6.4610    3.7745    9.0229 O.3       1 <0>        -0.2326
      4 C3          6.0065    3.4692    7.7929 C.2       1 <0>         0.4397
      5 O2          5.2167    4.2063    7.2369 O.2       1 <0>        -0.4279
      6 N1          6.4275    2.3460    7.1785 N.am      1 <0>        -0.2987
      7 C4          6.0411    2.0833    5.8651 C.ar      1 <0>         0.2002
      8 C5          6.5657    0.9851    5.2171 C.ar      1 <0>        -0.1937
      9 C6          6.1717    0.7271    3.8932 C.ar      1 <0>         0.0805
     10 C7          5.2476    1.6132    3.2812 C.ar      1 <0>        -0.1342
     11 C8          4.7655    2.7135    4.0290 C.ar      1 <0>         0.2993
     12 N2          3.8635    3.5944    3.4599 N.pl3     1 <0>        -0.3158
     13 N3          4.8563    1.3923    2.0264 N.ar      1 <0>        -0.0817
     14 C9          5.3304    0.3567    1.3701 C.ar      1 <0>        -0.0622
     15 C10         6.2350   -0.5189    1.9729 C.ar      1 <0>        -0.0048
     16 N4          6.6412   -0.3190    3.2078 N.ar      1 <0>        -0.1111
     17 C11         4.8871    0.1082   -0.0486 C.3       1 <0>         0.0471
     18 N5          3.6301   -0.6442   -0.0427 N.pl3     1 <0>        -0.3399
     19 C12         3.6531   -2.1090   -0.0527 C.3       1 <0>        -0.0527
     20 C13         2.4097    0.0350   -0.0275 C.ar      1 <0>         0.1084
     21 C14         1.2168   -0.6769   -0.0219 C.ar      1 <0>        -0.1910
     22 C15         0.0119   -0.0021   -0.0074 C.ar      1 <0>        -0.0778
     23 C16        -0.0080    1.3805    0.0016 C.ar      1 <0>        -0.1671
     24 C17         1.1776    2.0923   -0.0039 C.ar      1 <0>        -0.0944
     25 C18         2.3861    1.4239   -0.0185 C.ar      1 <0>        -0.2092
     26 H1          6.2156    6.0966   11.4608 H         1 <0>         0.1144
     27 H2          6.3204    4.3288   11.6398 H         1 <0>         0.0980
     28 H3          7.6728    5.2317   10.9159 H         1 <0>         0.0979
     29 H4          6.2325    5.8478    8.9937 H         1 <0>         0.1014
     30 H5          4.8802    4.9449    9.7177 H         1 <0>         0.1020
     31 H6          6.9994    1.7204    7.6501 H         1 <0>         0.2850
     32 H7          7.2671    0.3345    5.7184 H         1 <0>         0.1990
     33 H8          3.5615    3.4579    2.5483 H         1 <0>         0.2869
     34 H9          3.5330    4.3487    3.9724 H         1 <0>         0.2533
     35 H10         6.6089   -1.3666    1.4179 H         1 <0>         0.1986
     36 H11         5.6514   -0.4654   -0.5729 H         1 <0>         0.1136
     37 H12         4.7373    1.0619   -0.5547 H         1 <0>         0.1289
     38 H13         3.6498   -2.4654   -1.0828 H         1 <0>         0.0842
     39 H14         4.5531   -2.4617    0.4510 H         1 <0>         0.0677
     40 H15         2.7734   -2.4897    0.4662 H         1 <0>         0.0973
     41 H16         1.2317   -1.7567   -0.0293 H         1 <0>         0.1378
     42 H17        -0.9158   -0.5550   -0.0034 H         1 <0>         0.1400
     43 H18        -0.9516    1.9057    0.0084 H         1 <0>         0.1371
     44 H19         1.1585    3.1721    0.0028 H         1 <0>         0.1258
     45 H20         3.3116    1.9804   -0.0225 H         1 <0>         0.1258
     46 N6          5.1454    2.9658    5.3116 N.ar      1 <0>        -0.2144
     47 H21         4.7828    3.7706    5.8361 H         1 <0>         0.3522
@<TRIPOS>BOND
     1    1    2 1
     2    1   26 1
     3    1   27 1
     4    1   28 1
     5    2    3 1
     6    2   29 1
     7    2   30 1
     8    3    4 1
     9    4    5 2
    10    4    6 am
    11    6    7 1
    12    6   31 1
    13    7    8 ar
    14    7   46 ar
    15    8    9 ar
    16    8   32 1
    17    9   16 ar
    18    9   10 ar
    19   10   11 ar
    20   10   13 ar
    21   11   12 1
    22   11   46 ar
    23   12   33 1
    24   12   34 1
    25   13   14 ar
    26   14   15 ar
    27   14   17 1
    28   15   16 ar
    29   15   35 1
    30   17   18 1
    31   17   36 1
    32   17   37 1
    33   18   19 1
    34   18   20 1
    35   19   38 1
    36   19   39 1
    37   19   40 1
    38   20   25 ar
    39   20   21 ar
    40   21   22 ar
    41   21   41 1
    42   22   23 ar
    43   22   42 1
    44   23   24 ar
    45   23   43 1
    46   24   25 ar
    47   24   44 1
    48   25   45 1
    49   46   47 1
@<TRIPOS>MOLECULE
ZINC01564714
   46    48     0     0     0
SMALL
USER_CHARGES

@<TRIPOS>ATOM
      1 C1         -7.4526    6.3724   -4.9963 C.3       1 <0>        -0.1751
      2 C2         -6.8389    5.6409   -3.8304 C.ar      1 <0>        -0.0662
      3 C3         -5.9356    6.2680   -3.0281 C.ar      1 <0>        -0.1256
      4 C4         -5.3630    5.6101   -1.9414 C.ar      1 <0>        -0.1307
      5 C5         -5.6807    4.3171   -1.6582 C.ar      1 <0>        -0.0612
      6 C6         -6.6089    3.6367   -2.4642 C.ar      1 <0>        -0.0262
      7 C7         -7.1964    4.3082   -3.5657 C.ar      1 <0>        -0.0291
      8 C8         -8.1259    3.6280   -4.3711 C.ar      1 <0>        -0.1302
      9 C9         -8.4485    2.3375   -4.0840 C.ar      1 <0>        -0.1220
     10 C10        -7.8705    1.6771   -3.0012 C.ar      1 <0>        -0.1340
     11 C11        -6.9671    2.3038   -2.1992 C.ar      1 <0>        -0.0940
     12 C12        -5.0447    3.6209   -0.4826 C.3       1 <0>        -0.0569
     13 C13        -3.6819    3.1126   -0.8769 C.2       1 <0>        -0.2818
     14 C14        -2.5695    3.8741   -0.6652 C.2       1 <0>         0.1293
     15 N1         -1.3697    3.4145   -1.0127 N.2       1 <0>        -0.2684
     16 C15        -1.2248    2.2302   -1.5732 C.2       1 <0>         0.2814
     17 N2         -2.2974    1.4272   -1.8086 N.am      1 <0>        -0.3109
     18 H1         -2.1693    0.5300   -2.2313 H         1 <0>         0.2446
     19 C16        -3.5355    1.8458   -1.4695 C.2       1 <0>         0.3574
     20 O1         -4.5085    1.1384   -1.6730 O.2       1 <0>        -0.3744
     21 N3          0.0274    1.7986   -1.9194 N.pl3     1 <0>        -0.3837
     22 C17        -2.6992    5.2354   -0.0317 C.3       1 <0>         0.1936
     23 O2         -1.9957    5.2509    1.2121 O.3       1 <0>        -0.2757
     24 C18        -2.4356    6.2665    2.1160 C.3       1 <0>        -0.0798
     25 O3         -2.1450    6.2217   -0.9047 O.3       1 <0>        -0.2704
     26 C19        -2.5139    7.5624   -0.5754 C.3       1 <0>        -0.0742
     27 H2         -8.3641    6.8740   -4.6713 H         1 <0>         0.0849
     28 H3         -6.7461    7.1115   -5.3741 H         1 <0>         0.0800
     29 H4         -7.6915    5.6609   -5.7867 H         1 <0>         0.0840
     30 H5         -5.6625    7.2924   -3.2338 H         1 <0>         0.1248
     31 H6         -4.6526    6.1322   -1.3176 H         1 <0>         0.1218
     32 H7         -8.5821    4.1271   -5.2133 H         1 <0>         0.1302
     33 H8         -9.1633    1.8173   -4.7044 H         1 <0>         0.1229
     34 H9         -8.1440    0.6528   -2.7953 H         1 <0>         0.1277
     35 H10        -6.5280    1.7796   -1.3632 H         1 <0>         0.1602
     36 H11        -5.6701    2.7829   -0.1748 H         1 <0>         0.1144
     37 H12        -4.9451    4.3231    0.3451 H         1 <0>         0.0866
     38 H13         0.1440    0.9269   -2.3287 H         1 <0>         0.2293
     39 H14         0.7976    2.3660   -1.7591 H         1 <0>         0.2599
     40 H15        -3.7521    5.4558    0.1436 H         1 <0>         0.0897
     41 H16        -2.3880    7.2373    1.6228 H         1 <0>         0.0643
     42 H17        -3.4627    6.0630    2.4192 H         1 <0>         0.0547
     43 H18        -1.7918    6.2738    2.9955 H         1 <0>         0.1057
     44 H19        -3.5788    7.6003   -0.3458 H         1 <0>         0.0517
     45 H20        -1.9431    7.8937    0.2921 H         1 <0>         0.0680
     46 H21        -2.3012    8.2160   -1.4214 H         1 <0>         0.1033
@<TRIPOS>BOND
     1    1    2 1
     2    1   27 1
     3    1   28 1
     4    1   29 1
     5    2    7 ar
     6    2    3 ar
     7    3    4 ar
     8    3   30 1
     9    4    5 ar
    10    4   31 1
    11    5    6 ar
    12    5   12 1
    13    6   11 ar
    14    6    7 ar
    15    7    8 ar
    16    8    9 ar
    17    8   32 1
    18    9   10 ar
    19    9   33 1
    20   10   11 ar
    21   10   34 1
    22   11   35 1
    23   12   13 1
    24   12   36 1
    25   12   37 1
    26   13   19 1
    27   13   14 2
    28   14   15 1
    29   14   22 1
    30   15   16 2
    31   16   17 1
    32   16   21 1
    33   17   18 1
    34   17   19 am
    35   19   20 2
    36   21   38 1
    37   21   39 1
    38   22   23 1
    39   22   25 1
    40   22   40 1
    41   23   24 1
    42   24   41 1
    43   24   42 1
    44   24   43 1
    45   25   26 1
    46   26   44 1
    47   26   45 1
    48   26   46 1
@<TRIPOS>MOLECULE
ZINC01564714
   46    48     0     0     0
SMALL
USER_CHARGES

@<TRIPOS>ATOM
      1 C1         -7.4396    6.3647   -5.0290 C.3       1 <0>        -0.1756
      2 C2         -6.8298    5.6370   -3.8587 C.ar      1 <0>        -0.0614
      3 C3         -5.9282    6.2664   -3.0563 C.ar      1 <0>        -0.1299
      4 C4         -5.3592    5.6121   -1.9655 C.ar      1 <0>        -0.1355
      5 C5         -5.6787    4.3204   -1.6784 C.ar      1 <0>        -0.0595
      6 C6         -6.6052    3.6377   -2.4844 C.ar      1 <0>        -0.0234
      7 C7         -7.1891    4.3056   -3.5901 C.ar      1 <0>        -0.0283
      8 C8         -8.1169    3.6232   -4.3955 C.ar      1 <0>        -0.1325
      9 C9         -8.4414    2.3340   -4.1045 C.ar      1 <0>        -0.1180
     10 C10        -7.8669    1.6772   -3.0177 C.ar      1 <0>        -0.1294
     11 C11        -6.9653    2.3061   -2.2155 C.ar      1 <0>        -0.0899
     12 C12        -5.0466    3.6280   -0.4984 C.3       1 <0>        -0.0680
     13 C13        -3.6831    3.1172   -0.8870 C.2       1 <0>        -0.2115
     14 C14        -2.5707    3.8786   -0.6751 C.2       1 <0>         0.0586
     15 N1         -1.3702    3.4165   -1.0172 N.pl3     1 <0>        -0.2131
     16 C15        -1.2247    2.2299   -1.5725 C.2       1 <0>         0.2719
     17 N2         -2.2973    1.4269   -1.8079 N.2       1 <0>        -0.3421
     18 H1         -0.5621    3.9812   -0.8495 H         1 <0>         0.2530
     19 C16        -3.5355    1.8456   -1.4691 C.2       1 <0>         0.3255
     20 O1         -4.5085    1.1382   -1.6726 O.2       1 <0>        -0.3489
     21 N3          0.0275    1.7981   -1.9183 N.pl3     1 <0>        -0.3875
     22 C17        -2.7010    5.2423   -0.0470 C.3       1 <0>         0.1702
     23 O2         -2.0010    5.2619    1.1987 O.3       1 <0>        -0.2970
     24 C18        -2.4426    6.2812    2.0976 C.3       1 <0>        -0.0766
     25 O3         -2.1436    6.2249   -0.9221 O.3       1 <0>        -0.2932
     26 C19        -2.5123    7.5671   -0.5989 C.3       1 <0>        -0.0710
     27 H2         -8.3516    6.8682   -4.7085 H         1 <0>         0.0848
     28 H3         -6.7315    7.1018   -5.4076 H         1 <0>         0.0792
     29 H4         -7.6769    5.6504   -5.8175 H         1 <0>         0.0859
     30 H5         -5.6537    7.2898   -3.2650 H         1 <0>         0.1229
     31 H6         -4.6501    6.1359   -1.3417 H         1 <0>         0.1136
     32 H7         -8.5704    4.1195   -5.2408 H         1 <0>         0.1299
     33 H8         -9.1549    1.8121   -4.7250 H         1 <0>         0.1237
     34 H9         -8.1419    0.6539   -2.8087 H         1 <0>         0.1310
     35 H10        -6.5289    1.7847   -1.3763 H         1 <0>         0.1642
     36 H11        -5.6735    2.7917   -0.1893 H         1 <0>         0.1256
     37 H12        -4.9487    4.3332    0.3269 H         1 <0>         0.0785
     38 H13         0.1442    0.9263   -2.3274 H         1 <0>         0.2620
     39 H14         0.7977    2.3655   -1.7581 H         1 <0>         0.2249
     40 H15        -3.7542    5.4642    0.1245 H         1 <0>         0.1102
     41 H16        -2.3928    7.2501    1.6009 H         1 <0>         0.0663
     42 H17        -3.4707    6.0797    2.3986 H         1 <0>         0.0637
     43 H18        -1.8012    6.2912    2.9788 H         1 <0>         0.1091
     44 H19        -3.5778    7.6067   -0.3724 H         1 <0>         0.0611
     45 H20        -1.9436    7.9012    0.2690 H         1 <0>         0.0685
     46 H21        -2.2967    8.2174   -1.4467 H         1 <0>         0.1083
@<TRIPOS>BOND
     1    1    2 1
     2    1   27 1
     3    1   28 1
     4    1   29 1
     5    2    7 ar
     6    2    3 ar
     7    3    4 ar
     8    3   30 1
     9    4    5 ar
    10    4   31 1
    11    5    6 ar
    12    5   12 1
    13    6   11 ar
    14    6    7 ar
    15    7    8 ar
    16    8    9 ar
    17    8   32 1
    18    9   10 ar
    19    9   33 1
    20   10   11 ar
    21   10   34 1
    22   11   35 1
    23   12   13 1
    24   12   36 1
    25   12   37 1
    26   13   19 1
    27   13   14 2
    28   14   22 1
    29   14   15 1
    30   15   18 1
    31   15   16 1
    32   16   21 1
    33   16   17 2
    34   17   19 1
    35   19   20 2
    36   21   38 1
    37   21   39 1
    38   22   23 1
    39   22   25 1
    40   22   40 1
    41   23   24 1
    42   24   41 1
    43   24   42 1
    44   24   43 1
    45   25   26 1
    46   26   44 1
    47   26   45 1
    48   26   46 1
@<TRIPOS>MOLECULE
ZINC01564714
   46    48     0     0     0
SMALL
USER_CHARGES

@<TRIPOS>ATOM
      1 C1         -7.4553    6.4020   -4.9633 C.3       1 <0>        -0.1775
      2 C2         -6.8406    5.6616   -3.8035 C.ar      1 <0>        -0.0582
      3 C3         -5.9362    6.2824   -2.9975 C.ar      1 <0>        -0.1221
      4 C4         -5.3627    5.6163   -1.9163 C.ar      1 <0>        -0.1049
      5 C5         -5.6805    4.3213   -1.6424 C.ar      1 <0>        -0.0829
      6 C6         -6.6099    3.6473   -2.4524 C.ar      1 <0>        -0.0237
      7 C7         -7.1983    4.3271   -3.5483 C.ar      1 <0>        -0.0301
      8 C8         -8.1289    3.6532   -4.3577 C.ar      1 <0>        -0.1011
      9 C9         -8.4517    2.3607   -4.0798 C.ar      1 <0>        -0.1318
     10 C10        -7.8727    1.6921   -3.0026 C.ar      1 <0>        -0.0989
     11 C11        -6.9683    2.3125   -2.1969 C.ar      1 <0>        -0.1510
     12 C12        -5.0435    3.6162   -0.4727 C.3       1 <0>        -0.0718
     13 C13        -3.6813    3.1104   -0.8722 C.ar      1 <0>        -0.3824
     14 C14        -2.5684    3.8697   -0.6557 C.ar      1 <0>         0.1516
     15 N1         -1.3691    3.4121   -1.0075 N.ar      1 <0>        -0.2786
     16 C15        -1.2247    2.2299   -1.5725 C.ar      1 <0>         0.2606
     17 N2         -2.2985    1.4314   -1.8178 N.ar      1 <0>        -0.3271
     18 H1         -5.3353    1.6147   -1.3736 H         1 <0>         0.2862
     19 C16        -3.5366    1.8501   -1.4790 C.ar      1 <0>         0.2744
     20 O1         -4.5101    1.1448   -1.6870 O.3       1 <0>        -0.2059
     21 N3          0.0275    1.7981   -1.9183 N.pl3     1 <0>        -0.3612
     22 C17        -2.6975    5.2287   -0.0171 C.3       1 <0>         0.1920
     23 O2         -1.9912    5.2403    1.2251 O.3       1 <0>        -0.2702
     24 C18        -2.4297    6.2524    2.1336 C.3       1 <0>        -0.0804
     25 O3         -2.1460    6.2184   -0.8879 O.3       1 <0>        -0.2669
     26 C19        -2.5150    7.5577   -0.5531 C.3       1 <0>        -0.0750
     27 H2         -8.3662    6.9015   -4.6336 H         1 <0>         0.0881
     28 H3         -6.7489    7.1436   -5.3363 H         1 <0>         0.0860
     29 H4         -7.6953    5.6964   -5.7587 H         1 <0>         0.0852
     30 H5         -5.6630    7.3082   -3.1959 H         1 <0>         0.1319
     31 H6         -4.6514    6.1335   -1.2894 H         1 <0>         0.1317
     32 H7         -8.5858    4.1587   -5.1957 H         1 <0>         0.1381
     33 H8         -9.1673    1.8454   -4.7033 H         1 <0>         0.1325
     34 H9         -8.1464    0.6664   -2.8040 H         1 <0>         0.1328
     35 H10        -6.5284    1.7820   -1.3653 H         1 <0>         0.1234
     36 H11        -5.6689    2.7762   -0.1704 H         1 <0>         0.0798
     37 H12        -4.9428    4.3122    0.3601 H         1 <0>         0.1050
     38 H13         0.1441    0.9264   -2.3276 H         1 <0>         0.2394
     39 H14         0.7978    2.3654   -1.7578 H         1 <0>         0.2439
     40 H15        -3.7502    5.4478    0.1614 H         1 <0>         0.0777
     41 H16        -2.3839    7.2250    1.6437 H         1 <0>         0.0635
     42 H17        -3.4560    6.0472    2.4384 H         1 <0>         0.0512
     43 H18        -1.7839    6.2571    3.0116 H         1 <0>         0.1068
     44 H19        -3.5794    7.5941   -0.3209 H         1 <0>         0.0468
     45 H20        -1.9424    7.8863    0.3143 H         1 <0>         0.0698
     46 H21        -2.3046    8.2144   -1.3973 H         1 <0>         0.1031
@<TRIPOS>BOND
     1    1    2 1
     2    1   27 1
     3    1   28 1
     4    1   29 1
     5    2    7 ar
     6    2    3 ar
     7    3    4 ar
     8    3   30 1
     9    4    5 ar
    10    4   31 1
    11    5    6 ar
    12    5   12 1
    13    6   11 ar
    14    6    7 ar
    15    7    8 ar
    16    8    9 ar
    17    8   32 1
    18    9   10 ar
    19    9   33 1
    20   10   11 ar
    21   10   34 1
    22   11   35 1
    23   12   13 1
    24   12   36 1
    25   12   37 1
    26   13   19 ar
    27   13   14 ar
    28   14   22 1
    29   14   15 ar
    30   15   16 ar
    31   16   21 1
    32   16   17 ar
    33   17   19 ar
    34   18   20 1
    35   19   20 1
    36   21   38 1
    37   21   39 1
    38   22   23 1
    39   22   25 1
    40   22   40 1
    41   23   24 1
    42   24   41 1
    43   24   42 1
    44   24   43 1
    45   25   26 1
    46   26   44 1
    47   26   45 1
    48   26   46 1
@<TRIPOS>MOLECULE
ZINC01565908
   39    41     0     0     0
SMALL
USER_CHARGES

@<TRIPOS>ATOM
      1 C1         12.3936    2.3407   -1.7898 C.2       1 <0>        -0.2126
      2 C2         11.8083    1.6393   -2.7510 C.2       1 <0>        -0.1265
      3 C3         10.3461    1.4282   -2.7259 C.ar      1 <0>        -0.0611
      4 C4          9.7285    0.6900   -3.7371 C.ar      1 <0>        -0.0992
      5 C5          8.3645    0.4946   -3.7105 C.ar      1 <0>        -0.1584
      6 C6          7.6040    1.0312   -2.6781 C.ar      1 <0>         0.0594
      7 C7          8.2152    1.7711   -1.6726 C.ar      1 <0>        -0.1255
      8 C8          9.5794    1.9661   -1.6907 C.ar      1 <0>        -0.1040
      9 N1          6.2205    0.8311   -2.6541 N.am      1 <0>        -0.3230
     10 C9          5.5772    0.7123   -1.4757 C.2       1 <0>         0.3058
     11 O1          6.2083    0.6829   -0.4404 O.2       1 <0>        -0.3555
     12 C10         4.0736    0.6159   -1.4446 C.3       1 <0>        -0.2136
     13 C11         3.6006    0.4897    0.0050 C.3       1 <0>         0.0055
     14 N2          2.1389    0.3960    0.0353 N.pl3     1 <0>        -0.1720
     15 C12         1.2681    1.4285    0.2197 C.2       1 <0>        -0.0342
     16 N3          0.0438    0.9884    0.1893 N.2       1 <0>        -0.1433
     17 C13         0.0509   -0.3507   -0.0158 C.ar      1 <0>        -0.1797
     18 C14         1.3953   -0.7469   -0.1171 C.ar      1 <0>         0.0635
     19 N4          1.6770   -2.0292   -0.3229 N.ar      1 <0>        -0.2474
     20 C15         0.7128   -2.9191   -0.4302 C.ar      1 <0>         0.0622
     21 N5         -0.5641   -2.5947   -0.3419 N.ar      1 <0>        -0.2894
     22 C16        -0.9423   -1.3371   -0.1374 C.ar      1 <0>         0.2063
     23 N6         -2.2831   -1.0069   -0.0459 N.pl3     1 <0>        -0.2734
     24 H1         11.8015    2.7577   -0.9886 H         1 <0>         0.1162
     25 H2         13.4623    2.4950   -1.8082 H         1 <0>         0.1156
     26 H3         12.4004    1.2223   -3.5523 H         1 <0>         0.1280
     27 H4         10.3189    0.2723   -4.5391 H         1 <0>         0.1344
     28 H5          7.8861   -0.0764   -4.4925 H         1 <0>         0.1303
     29 H6          7.6210    2.1905   -0.8742 H         1 <0>         0.1566
     30 H7         10.0543    2.5377   -0.9070 H         1 <0>         0.1388
     31 H8          5.7237    0.7777   -3.4855 H         1 <0>         0.2342
     32 H9          3.7539   -0.2603   -2.0086 H         1 <0>         0.1253
     33 H10         3.6427    1.5123   -1.8906 H         1 <0>         0.1092
     34 H11         3.9203    1.3659    0.5691 H         1 <0>         0.1152
     35 H12         4.0314   -0.4066    0.4511 H         1 <0>         0.1366
     36 H13         1.5523    2.4598    0.3685 H         1 <0>         0.2100
     37 H14         0.9761   -3.9531   -0.5969 H         1 <0>         0.1993
     38 H15        -2.4657   -0.5993    0.8488 H         1 <0>         0.1831
     39 H16        -2.9595   -1.6969   -0.1315 H         1 <0>         0.1832
@<TRIPOS>BOND
     1    1    2 2
     2    1   24 1
     3    1   25 1
     4    2    3 1
     5    2   26 1
     6    3    8 ar
     7    3    4 ar
     8    4    5 ar
     9    4   27 1
    10    5    6 ar
    11    5   28 1
    12    6    7 ar
    13    6    9 1
    14    7    8 ar
    15    7   29 1
    16    8   30 1
    17    9   10 am
    18    9   31 1
    19   10   11 2
    20   10   12 1
    21   12   13 1
    22   12   32 1
    23   12   33 1
    24   13   14 1
    25   13   34 1
    26   13   35 1
    27   14   18 1
    28   14   15 1
    29   15   16 2
    30   15   36 1
    31   16   17 1
    32   17   22 ar
    33   17   18 ar
    34   18   19 ar
    35   19   20 ar
    36   20   21 ar
    37   20   37 1
    38   21   22 ar
    39   22   23 1
    40   23   38 1
    41   23   39 1
@<TRIPOS>MOLECULE
ZINC01583340
   45    48     0     0     0
SMALL
USER_CHARGES

@<TRIPOS>ATOM
      1 C1         -1.5471    6.7671   -4.4419 C.3       1 <0>        -0.1812
      2 C2         -1.7030    5.3147   -4.0712 C.2       1 <0>        -0.0035
      3 C3         -2.4773    4.4887   -4.8171 C.2       1 <0>        -0.2159
      4 C4         -2.6163    3.1300   -4.4608 C.2       1 <0>         0.3330
      5 O1         -3.3169    2.4047   -5.1454 O.2       1 <0>        -0.3718
      6 N1         -1.9952    2.6162   -3.3846 N.am      1 <0>        -0.2749
      7 H1         -2.1156    1.6490   -3.1611 H         1 <0>         0.2619
      8 C5         -1.1941    3.4046   -2.5843 C.ar      1 <0>         0.0844
      9 C6         -1.0226    4.7652   -2.8968 C.ar      1 <0>        -0.0870
     10 C7         -0.2112    5.5693   -2.0886 C.ar      1 <0>        -0.1027
     11 C8          0.4109    5.0288   -0.9992 C.ar      1 <0>        -0.1266
     12 C9          0.2434    3.6884   -0.6816 C.ar      1 <0>        -0.1657
     13 C10        -0.5491    2.8722   -1.4671 C.ar      1 <0>         0.0396
     14 O2         -0.7038    1.5592   -1.1497 O.3       1 <0>        -0.2367
     15 C11        -0.0127    1.0858    0.0080 C.3       1 <0>         0.1146
     16 O3         -0.6816    1.5467    1.1837 O.3       1 <0>        -0.2367
     17 C12        -1.8458    0.9271    1.5145 C.ar      1 <0>         0.0395
     18 C13        -2.3374   -0.0958    0.7250 C.ar      1 <0>        -0.1656
     19 C14        -3.5226   -0.7371    1.0560 C.ar      1 <0>        -0.1267
     20 C15        -4.2307   -0.3639    2.1631 C.ar      1 <0>        -0.1027
     21 C16        -3.7567    0.6719    2.9758 C.ar      1 <0>        -0.0870
     22 C17        -2.5539    1.3242    2.6496 C.ar      1 <0>         0.0844
     23 N2         -2.0910    2.3449    3.4543 N.am      1 <0>        -0.2749
     24 H2         -1.2355    2.8072    3.2210 H         1 <0>         0.2619
     25 C18        -2.7740    2.7268    4.5478 C.2       1 <0>         0.3330
     26 O4         -2.3360    3.6326    5.2359 O.2       1 <0>        -0.3719
     27 C19        -3.9857    2.1051    4.9183 C.2       1 <0>        -0.2160
     28 C20        -4.4924    1.0952    4.1689 C.2       1 <0>        -0.0035
     29 C21        -5.7853    0.4239    4.5546 C.3       1 <0>        -0.1812
     30 H3         -2.1291    6.9775   -5.3392 H         1 <0>         0.0912
     31 H4         -1.9038    7.3914   -3.6227 H         1 <0>         0.0944
     32 H5         -0.4957    6.9827   -4.6319 H         1 <0>         0.0930
     33 H6         -2.9894    4.8716   -5.6874 H         1 <0>         0.1652
     34 H7         -0.0770    6.6144   -2.3257 H         1 <0>         0.1403
     35 H8          1.0366    5.6516   -0.3770 H         1 <0>         0.1380
     36 H9          0.7396    3.2780    0.1855 H         1 <0>         0.1445
     37 H10         0.0021   -0.0041    0.0020 H         1 <0>         0.1232
     38 H11         1.0099    1.4631    0.0003 H         1 <0>         0.1231
     39 H12        -1.7921   -0.4009   -0.1559 H         1 <0>         0.1445
     40 H13        -3.8906   -1.5369    0.4305 H         1 <0>         0.1380
     41 H14        -5.1536   -0.8672    2.4106 H         1 <0>         0.1403
     42 H15        -4.5112    2.4348    5.8024 H         1 <0>         0.1652
     43 H16        -6.1742    0.8805    5.4648 H         1 <0>         0.0912
     44 H17        -6.5107    0.5429    3.7498 H         1 <0>         0.0944
     45 H18        -5.6060   -0.6371    4.7283 H         1 <0>         0.0930
@<TRIPOS>BOND
     1    1    2 1
     2    1   30 1
     3    1   31 1
     4    1   32 1
     5    2    9 1
     6    2    3 2
     7    3    4 1
     8    3   33 1
     9    4    5 2
    10    4    6 am
    11    6    7 1
    12    6    8 1
    13    8   13 ar
    14    8    9 ar
    15    9   10 ar
    16   10   11 ar
    17   10   34 1
    18   11   12 ar
    19   11   35 1
    20   12   13 ar
    21   12   36 1
    22   13   14 1
    23   14   15 1
    24   15   16 1
    25   15   37 1
    26   15   38 1
    27   16   17 1
    28   17   22 ar
    29   17   18 ar
    30   18   19 ar
    31   18   39 1
    32   19   20 ar
    33   19   40 1
    34   20   21 ar
    35   20   41 1
    36   21   28 1
    37   21   22 ar
    38   22   23 1
    39   23   24 1
    40   23   25 am
    41   25   26 2
    42   25   27 1
    43   27   28 2
    44   27   42 1
    45   28   29 1
    46   29   43 1
    47   29   44 1
    48   29   45 1
@<TRIPOS>MOLECULE
ZINC01633085
   41    43     0     0     0
SMALL
USER_CHARGES

@<TRIPOS>ATOM
      1 C1         -2.2988   -0.3681    0.0119 C.3       1 <0>        -0.0662
      2 O1         -2.3911    1.0579    0.0196 O.3       1 <0>        -0.1977
      3 C2         -1.2218    1.7523    0.0173 C.ar      1 <0>         0.0743
      4 C3         -0.0126    1.0758    0.0080 C.ar      1 <0>        -0.1918
      5 C4          1.1751    1.7833    0.0004 C.ar      1 <0>        -0.0725
      6 C5          1.1599    3.1657    0.0080 C.ar      1 <0>        -0.1330
      7 C6         -0.0431    3.8467    0.0231 C.ar      1 <0>        -0.1196
      8 C7         -1.2371    3.1437    0.0302 C.ar      1 <0>         0.0525
      9 O2         -2.4214    3.8121    0.0451 O.3       1 <0>        -0.2765
     10 C8          2.4893    1.0459   -0.0156 C.3       1 <0>         0.0627
     11 H1          2.4280    0.0765    0.4789 H         1 <0>         0.1267
     12 C9          3.1157    0.9692   -1.4080 C.3       1 <0>        -0.1093
     13 H2          3.4437   -0.0286   -1.6995 H         1 <0>         0.1665
     14 C10         4.1822    1.8078   -0.7594 C.2       1 <0>         0.3167
     15 O3          5.2133    2.2798   -1.1895 O.2       1 <0>        -0.2873
     16 N1          3.6093    1.8607    0.4574 N.am      1 <0>        -0.2475
     17 N2          3.9477    2.4547    1.6803 N.am      1 <0>        -0.2469
     18 C11         4.9166    1.9151    2.4463 C.2       1 <0>         0.3573
     19 O4          5.4969    0.9128    2.0760 O.2       1 <0>        -0.3506
     20 C12         5.2729    2.5405    3.7340 C.ar      1 <0>        -0.1908
     21 C13         4.6106    3.6961    4.1584 C.ar      1 <0>        -0.0529
     22 C14         4.9410    4.2736    5.3630 C.ar      1 <0>        -0.2198
     23 C15         5.9423    3.7153    6.1529 C.ar      1 <0>         0.1485
     24 C16         6.6077    2.5678    5.7303 C.ar      1 <0>        -0.2231
     25 C17         6.2776    1.9821    4.5296 C.ar      1 <0>        -0.0106
     26 N3          6.2782    4.3048    7.3666 N.pl3     1 <0>        -0.4076
     27 Cl1         2.1799    1.8200   -2.6930 Cl        1 <0>        -0.0518
     28 H3         -1.7670   -0.6930   -0.8824 H         1 <0>         0.0673
     29 H4         -1.7582   -0.7020    0.8976 H         1 <0>         0.0692
     30 H5         -3.3009   -0.7971    0.0147 H         1 <0>         0.1123
     31 H6          0.0021   -0.0041    0.0020 H         1 <0>         0.1402
     32 H7          2.0898    3.7148    0.0024 H         1 <0>         0.1406
     33 H8         -0.0522    4.9266    0.0290 H         1 <0>         0.1474
     34 H9         -2.7721    4.0104   -0.8339 H         1 <0>         0.2276
     35 H10         3.4848    3.2542    1.9757 H         1 <0>         0.2468
     36 H11         3.8373    4.1326    3.5437 H         1 <0>         0.1228
     37 H12         4.4266    5.1638    5.6936 H         1 <0>         0.1340
     38 H13         7.3841    2.1371    6.3452 H         1 <0>         0.1371
     39 H14         6.7940    1.0917    4.2024 H         1 <0>         0.1579
     40 H15         6.9754    3.9165    7.9179 H         1 <0>         0.2241
     41 H16         5.8152    5.1043    7.6620 H         1 <0>         0.2230
@<TRIPOS>BOND
     1    1    2 1
     2    1   28 1
     3    1   29 1
     4    1   30 1
     5    2    3 1
     6    3    8 ar
     7    3    4 ar
     8    4    5 ar
     9    4   31 1
    10    5    6 ar
    11    5   10 1
    12    6    7 ar
    13    6   32 1
    14    7    8 ar
    15    7   33 1
    16    8    9 1
    17    9   34 1
    18   10   11 1
    19   10   16 1
    20   10   12 1
    21   12   13 1
    22   12   14 1
    23   12   27 1
    24   14   15 2
    25   14   16 am
    26   16   17 1
    27   17   18 am
    28   17   35 1
    29   18   19 2
    30   18   20 1
    31   20   25 ar
    32   20   21 ar
    33   21   22 ar
    34   21   36 1
    35   22   23 ar
    36   22   37 1
    37   23   24 ar
    38   23   26 1
    39   24   25 ar
    40   24   38 1
    41   25   39 1
    42   26   40 1
    43   26   41 1
@<TRIPOS>MOLECULE
ZINC01639371
   39    41     0     0     0
SMALL
USER_CHARGES

@<TRIPOS>ATOM
      1 C1          1.6227    3.0755    2.7706 C.3       1 <0>        -0.1438
      2 C2          1.0392    1.7400    3.1539 C.2       1 <0>        -0.0313
      3 C3          0.0000    1.0800    2.4877 C.2       1 <0>        -0.2374
      4 C4         -0.2391   -0.0872    3.1398 C.2       1 <0>         0.1603
      5 N1          0.6357   -0.1590    4.1833 N.pl3     1 <0>        -0.1363
      6 N2          1.4187    1.0024    4.1646 N.2       1 <0>        -0.0812
      7 C5          0.7289   -1.1909    5.0998 C.2       1 <0>         0.2958
      8 N3          1.6571   -1.1178    6.0905 N.am      1 <0>        -0.2844
      9 H1          2.2645   -0.3254    6.1473 H         1 <0>         0.2710
     10 C6          1.7609   -2.1118    6.9974 C.2       1 <0>         0.3371
     11 O1          2.5883   -2.0524    7.8923 O.2       1 <0>        -0.3595
     12 C7          0.9032   -3.2186    6.8890 C.2       1 <0>        -0.3139
     13 C8         -0.0210   -3.2437    5.8562 C.2       1 <0>         0.1291
     14 N4         -0.0772   -2.2213    4.9902 N.2       1 <0>        -0.2693
     15 C9         -0.9422   -4.3949    5.7095 C.ar      1 <0>        -0.0521
     16 C10        -0.8794   -5.4605    6.6070 C.ar      1 <0>        -0.0997
     17 C11        -1.7429   -6.5278    6.4678 C.ar      1 <0>        -0.1353
     18 C12        -2.6626   -6.5468    5.4346 C.ar      1 <0>        -0.1093
     19 C13        -2.7264   -5.4949    4.5383 C.ar      1 <0>        -0.1402
     20 C14        -1.8715   -4.4198    4.6700 C.ar      1 <0>        -0.0828
     21 O2         -1.1751   -1.0133    2.8115 O.3       1 <0>        -0.2303
     22 C15        -0.7288    1.5792    1.2668 C.3       1 <0>        -0.0831
     23 C16        -0.0127    1.0858    0.0080 C.3       1 <0>         0.0019
     24 O3         -0.7038    1.5592   -1.1497 O.3       1 <0>        -0.3543
     25 H2          1.0774    3.8700    3.2801 H         1 <0>         0.1035
     26 H3          2.6724    3.1106    3.0621 H         1 <0>         0.0993
     27 H4          1.5403    3.2120    1.6923 H         1 <0>         0.0968
     28 H5          0.9627   -4.0334    7.5953 H         1 <0>         0.1729
     29 H6         -0.1588   -5.4488    7.4113 H         1 <0>         0.1385
     30 H7         -1.6978   -7.3519    7.1644 H         1 <0>         0.1345
     31 H8         -3.3338   -7.3861    5.3274 H         1 <0>         0.1312
     32 H9         -3.4465   -5.5153    3.7337 H         1 <0>         0.1332
     33 H10        -1.9222   -3.5992    3.9698 H         1 <0>         0.1521
     34 H11        -0.8594   -1.6913    2.1985 H         1 <0>         0.2455
     35 H12        -0.7436    2.6691    1.2728 H         1 <0>         0.1041
     36 H13        -1.7514    1.2020    1.2746 H         1 <0>         0.1116
     37 H14         0.0021   -0.0041    0.0020 H         1 <0>         0.0534
     38 H15         1.0099    1.4631    0.0003 H         1 <0>         0.0595
     39 H16        -0.3044    1.2838   -1.9862 H         1 <0>         0.2127
@<TRIPOS>BOND
     1    1    2 1
     2    1   25 1
     3    1   26 1
     4    1   27 1
     5    2    6 2
     6    2    3 1
     7    3    4 2
     8    3   22 1
     9    4    5 1
    10    4   21 1
    11    5    6 1
    12    5    7 1
    13    7   14 2
    14    7    8 1
    15    8    9 1
    16    8   10 am
    17   10   11 2
    18   10   12 1
    19   12   13 2
    20   12   28 1
    21   13   14 1
    22   13   15 1
    23   15   20 ar
    24   15   16 ar
    25   16   17 ar
    26   16   29 1
    27   17   18 ar
    28   17   30 1
    29   18   19 ar
    30   18   31 1
    31   19   20 ar
    32   19   32 1
    33   20   33 1
    34   21   34 1
    35   22   23 1
    36   22   35 1
    37   22   36 1
    38   23   24 1
    39   23   37 1
    40   23   38 1
    41   24   39 1
@<TRIPOS>MOLECULE
ZINC01639371
   39    41     0     0     0
SMALL
USER_CHARGES

@<TRIPOS>ATOM
      1 C1          1.6213    3.0765    2.7719 C.3       1 <0>        -0.1401
      2 C2          1.0381    1.7408    3.1549 C.2       1 <0>        -0.0702
      3 C3         -0.0010    1.0807    2.4886 C.2       1 <0>        -0.1939
      4 C4         -0.2398   -0.0867    3.1404 C.2       1 <0>         0.0724
      5 N1          0.6350   -0.1585    4.1839 N.pl3     1 <0>        -0.1232
      6 N2          1.4177    1.0031    4.1654 N.2       1 <0>         0.0246
      7 C5          0.7284   -1.1906    5.1002 C.2       1 <0>         0.2699
      8 N3          1.6566   -1.1175    6.0909 N.2       1 <0>        -0.2621
      9 H1         -0.7496   -2.2416    4.2503 H         1 <0>         0.2590
     10 C6          1.7609   -2.1118    6.9974 C.2       1 <0>         0.3042
     11 O1          2.5883   -2.0524    7.8923 O.2       1 <0>        -0.3209
     12 C7          0.8954   -3.2132    6.8959 C.2       1 <0>        -0.2740
     13 C8         -0.0286   -3.2384    5.8629 C.2       1 <0>         0.0770
     14 N4         -0.0811   -2.2186    4.9937 N.pl3     1 <0>        -0.2271
     15 C9         -0.9539   -4.3868    5.7198 C.ar      1 <0>        -0.0600
     16 C10        -0.8951   -5.4496    6.6209 C.ar      1 <0>        -0.0927
     17 C11        -1.7624   -6.5143    6.4851 C.ar      1 <0>        -0.1209
     18 C12        -2.6819   -6.5334    5.4517 C.ar      1 <0>        -0.1108
     19 C13        -2.7417   -5.4843    4.5518 C.ar      1 <0>        -0.1207
     20 C14        -1.8830   -4.4119    4.6802 C.ar      1 <0>        -0.1241
     21 O2         -1.1756   -1.0129    2.8120 O.3       1 <0>        -0.2594
     22 C15        -0.7299    1.5800    1.2678 C.3       1 <0>        -0.0890
     23 C16        -0.0137    1.0870    0.0089 C.3       1 <0>         0.0029
     24 O3         -0.7049    1.5605   -1.1487 O.3       1 <0>        -0.3539
     25 H2          1.0758    3.8708    3.2815 H         1 <0>         0.1025
     26 H3          2.6710    3.1118    3.0634 H         1 <0>         0.1048
     27 H4          1.5388    3.2132    1.6936 H         1 <0>         0.0919
     28 H5          0.9516   -4.0256    7.6052 H         1 <0>         0.1683
     29 H6         -0.1747   -5.4378    7.4254 H         1 <0>         0.1475
     30 H7         -1.7205   -7.3362    7.1845 H         1 <0>         0.1408
     31 H8         -3.3561   -7.3707    5.3471 H         1 <0>         0.1371
     32 H9         -3.4617   -5.5049    3.7471 H         1 <0>         0.1366
     33 H10        -1.9305   -3.5935    3.9772 H         1 <0>         0.1200
     34 H11        -0.8598   -1.6908    2.1988 H         1 <0>         0.2377
     35 H12        -0.7450    2.6699    1.2740 H         1 <0>         0.1092
     36 H13        -1.7524    1.2025    1.2755 H         1 <0>         0.1090
     37 H14         0.0013   -0.0029    0.0027 H         1 <0>         0.0499
     38 H15         1.0088    1.4645    0.0012 H         1 <0>         0.0638
     39 H16        -0.3055    1.2853   -1.9853 H         1 <0>         0.2139
@<TRIPOS>BOND
     1    1    2 1
     2    1   25 1
     3    1   26 1
     4    1   27 1
     5    2    6 2
     6    2    3 1
     7    3    4 2
     8    3   22 1
     9    4    5 1
    10    4   21 1
    11    5    6 1
    12    5    7 1
    13    7   14 1
    14    7    8 2
    15    8   10 1
    16    9   14 1
    17   10   11 2
    18   10   12 1
    19   12   28 1
    20   12   13 2
    21   13   15 1
    22   13   14 1
    23   15   20 ar
    24   15   16 ar
    25   16   17 ar
    26   16   29 1
    27   17   18 ar
    28   17   30 1
    29   18   19 ar
    30   18   31 1
    31   19   20 ar
    32   19   32 1
    33   20   33 1
    34   21   34 1
    35   22   23 1
    36   22   35 1
    37   22   36 1
    38   23   24 1
    39   23   37 1
    40   23   38 1
    41   24   39 1
@<TRIPOS>MOLECULE
ZINC01639371
   39    41     0     0     0
SMALL
USER_CHARGES

@<TRIPOS>ATOM
      1 C1          1.6227    3.0755    2.7706 C.3       1 <0>        -0.1388
      2 C2          1.0392    1.7400    3.1539 C.2       1 <0>        -0.0640
      3 C3          0.0000    1.0800    2.4877 C.2       1 <0>        -0.2373
      4 C4         -0.2391   -0.0872    3.1398 C.2       1 <0>         0.1385
      5 N1          0.6357   -0.1590    4.1833 N.pl3     1 <0>        -0.1031
      6 N2          1.4187    1.0024    4.1646 N.2       1 <0>        -0.0195
      7 C5          0.7289   -1.1909    5.0998 C.ar      1 <0>         0.2702
      8 N3          1.6566   -1.1175    6.0909 N.ar      1 <0>        -0.2598
      9 H1          2.5170   -2.8678    8.4668 H         1 <0>         0.2687
     10 C6          1.7604   -2.1115    6.9978 C.ar      1 <0>         0.2462
     11 O1          2.5842   -2.0496    7.8959 O.3       1 <0>        -0.1685
     12 C7          0.8962   -3.2137    6.8952 C.ar      1 <0>        -0.4129
     13 C8         -0.0276   -3.2391    5.8621 C.ar      1 <0>         0.1659
     14 N4         -0.0804   -2.2191    4.9930 N.ar      1 <0>        -0.2827
     15 C9         -0.9524   -4.3878    5.7185 C.ar      1 <0>        -0.0564
     16 C10        -0.8932   -5.4509    6.6192 C.ar      1 <0>        -0.1031
     17 C11        -1.7600   -6.5159    6.4829 C.ar      1 <0>        -0.1370
     18 C12        -2.6795   -6.5351    5.4496 C.ar      1 <0>        -0.1079
     19 C13        -2.7398   -5.4856    4.5502 C.ar      1 <0>        -0.1393
     20 C14        -1.8816   -4.4128    4.6789 C.ar      1 <0>        -0.0758
     21 O2         -1.1751   -1.0133    2.8115 O.3       1 <0>        -0.2353
     22 C15        -0.7288    1.5792    1.2668 C.3       1 <0>        -0.0812
     23 C16        -0.0127    1.0858    0.0080 C.3       1 <0>         0.0012
     24 O3         -0.7038    1.5592   -1.1497 O.3       1 <0>        -0.3562
     25 H2          1.0774    3.8700    3.2801 H         1 <0>         0.0978
     26 H3          2.6724    3.1106    3.0621 H         1 <0>         0.0978
     27 H4          1.5403    3.2120    1.6923 H         1 <0>         0.0901
     28 H5          0.9526   -4.0264    7.6042 H         1 <0>         0.1453
     29 H6         -0.1727   -5.4391    7.4236 H         1 <0>         0.1289
     30 H7         -1.7177   -7.3381    7.1820 H         1 <0>         0.1327
     31 H8         -3.3534   -7.3726    5.3447 H         1 <0>         0.1317
     32 H9         -3.4598   -5.5061    3.7455 H         1 <0>         0.1351
     33 H10        -1.9295   -3.5942    3.9763 H         1 <0>         0.1581
     34 H11        -0.8594   -1.6913    2.1985 H         1 <0>         0.2385
     35 H12        -0.7436    2.6691    1.2728 H         1 <0>         0.1019
     36 H13        -1.7514    1.2020    1.2746 H         1 <0>         0.1076
     37 H14         0.0021   -0.0041    0.0020 H         1 <0>         0.0525
     38 H15         1.0099    1.4631    0.0003 H         1 <0>         0.0603
     39 H16        -0.3044    1.2838   -1.9862 H         1 <0>         0.2099
@<TRIPOS>BOND
     1    1    2 1
     2    1   25 1
     3    1   26 1
     4    1   27 1
     5    2    6 2
     6    2    3 1
     7    3    4 2
     8    3   22 1
     9    4    5 1
    10    4   21 1
    11    5    6 1
    12    5    7 1
    13    7   14 ar
    14    7    8 ar
    15    8   10 ar
    16    9   11 1
    17   10   11 1
    18   10   12 ar
    19   12   28 1
    20   12   13 ar
    21   13   15 1
    22   13   14 ar
    23   15   20 ar
    24   15   16 ar
    25   16   17 ar
    26   16   29 1
    27   17   18 ar
    28   17   30 1
    29   18   19 ar
    30   18   31 1
    31   19   20 ar
    32   19   32 1
    33   20   33 1
    34   21   34 1
    35   22   23 1
    36   22   35 1
    37   22   36 1
    38   23   24 1
    39   23   37 1
    40   23   38 1
    41   24   39 1
@<TRIPOS>MOLECULE
ZINC01642466
   44    46     0     0     0
SMALL
USER_CHARGES

@<TRIPOS>ATOM
      1 C1         -1.5709    5.7118   -1.0590 C.3       1 <0>        -0.2150
      2 C2         -0.8164    5.1272   -2.2548 C.3       1 <0>        -0.0060
      3 O1         -1.1607    3.7247   -2.4057 O.3       1 <0>        -0.2666
      4 C3         -0.5794    3.0599   -3.4165 C.2       1 <0>         0.3069
      5 O2          0.1916    3.6309   -4.1509 O.2       1 <0>        -0.3687
      6 C4         -0.8883    1.6012   -3.6353 C.3       1 <0>        -0.1546
      7 C5         -0.2247    1.1280   -4.9302 C.3       1 <0>        -0.0463
      8 H1          0.8405    1.3563   -4.8960 H         1 <0>         0.1309
      9 C6         -0.4141   -0.3611   -5.0756 C.ar      1 <0>        -0.1589
     10 C7         -0.2949   -1.1534   -3.9438 C.ar      1 <0>        -0.0862
     11 C8         -0.4527   -2.5213   -4.0273 C.ar      1 <0>        -0.1752
     12 C9         -0.7318   -3.1127   -5.2516 C.ar      1 <0>         0.1015
     13 C10        -0.8540   -2.3253   -6.3836 C.ar      1 <0>        -0.1738
     14 C11        -0.6985   -0.9459   -6.2969 C.ar      1 <0>         0.1177
     15 O3         -0.8465   -0.2111   -7.4323 O.3       1 <0>        -0.1942
     16 C12        -0.4822    1.0841   -7.3739 C.2       1 <0>         0.3329
     17 O4          0.1206    1.6118   -8.2784 O.2       1 <0>        -0.2613
     18 C13        -0.8622    1.8487   -6.1222 C.3       1 <0>        -0.1098
     19 H2         -0.4835    2.8690   -6.1836 H         1 <0>         0.1586
     20 C14        -2.3611    1.8664   -5.9676 C.ar      1 <0>        -0.1519
     21 C15        -3.0465    0.6847   -5.7530 C.ar      1 <0>        -0.0819
     22 C16        -4.4196    0.6980   -5.6052 C.ar      1 <0>        -0.2078
     23 C17        -5.1134    1.8989   -5.6837 C.ar      1 <0>         0.1285
     24 C18        -4.4223    3.0835   -5.9050 C.ar      1 <0>        -0.2091
     25 C19        -3.0487    3.0637   -6.0462 C.ar      1 <0>        -0.0624
     26 N1         -6.5027    1.9153   -5.5408 N.pl3     1 <0>        -0.4178
     27 O5         -0.8850   -4.4602   -5.3386 O.3       1 <0>        -0.2855
     28 H3         -2.6440    5.6169   -1.2248 H         1 <0>         0.0865
     29 H4         -1.2937    5.1704   -0.1545 H         1 <0>         0.0861
     30 H5         -1.3125    6.7647   -0.9458 H         1 <0>         0.0898
     31 H6          0.2567    5.2222   -2.0890 H         1 <0>         0.0896
     32 H7         -1.0936    5.6687   -3.1593 H         1 <0>         0.0890
     33 H8         -0.5055    1.0190   -2.7971 H         1 <0>         0.1151
     34 H9         -1.9673    1.4655   -3.7094 H         1 <0>         0.1358
     35 H10        -0.0767   -0.6962   -2.9899 H         1 <0>         0.1397
     36 H11        -0.3595   -3.1314   -3.1410 H         1 <0>         0.1454
     37 H12        -1.0707   -2.7837   -7.3372 H         1 <0>         0.1617
     38 H13        -2.5070   -0.2492   -5.6968 H         1 <0>         0.1446
     39 H14        -4.9538   -0.2247   -5.4333 H         1 <0>         0.1305
     40 H15        -4.9587    4.0188   -5.9669 H         1 <0>         0.1322
     41 H16        -2.5108    3.9843   -6.2180 H         1 <0>         0.1373
     42 H17        -6.9861    2.7544   -5.5961 H         1 <0>         0.2208
     43 H18        -6.9841    1.0875   -5.3863 H         1 <0>         0.2202
     44 H19        -1.7946   -4.7618   -5.2093 H         1 <0>         0.2318
@<TRIPOS>BOND
     1    1    2 1
     2    1   28 1
     3    1   29 1
     4    1   30 1
     5    2    3 1
     6    2   31 1
     7    2   32 1
     8    3    4 1
     9    4    5 2
    10    4    6 1
    11    6    7 1
    12    6   33 1
    13    6   34 1
    14    7    8 1
    15    7   18 1
    16    7    9 1
    17    9   14 ar
    18    9   10 ar
    19   10   11 ar
    20   10   35 1
    21   11   12 ar
    22   11   36 1
    23   12   13 ar
    24   12   27 1
    25   13   14 ar
    26   13   37 1
    27   14   15 1
    28   15   16 1
    29   16   17 2
    30   16   18 1
    31   18   19 1
    32   18   20 1
    33   20   25 ar
    34   20   21 ar
    35   21   22 ar
    36   21   38 1
    37   22   23 ar
    38   22   39 1
    39   23   24 ar
    40   23   26 1
    41   24   25 ar
    42   24   40 1
    43   25   41 1
    44   26   42 1
    45   26   43 1
    46   27   44 1
@<TRIPOS>MOLECULE
ZINC01646589
   43    44     0     0     0
SMALL
USER_CHARGES

@<TRIPOS>ATOM
      1 C1          1.0908   -2.9196   -0.3510 C.3       1 <0>        -0.1875
      2 C2          1.4173   -1.5580    0.2656 C.3       1 <0>        -0.0920
      3 C3          2.5058   -0.8712   -0.5617 C.3       1 <0>        -0.2019
      4 C4          1.9137   -1.7533    1.6996 C.3       1 <0>        -0.2029
      5 C5          0.1779   -0.7008    0.2754 C.2       1 <0>         0.3118
      6 O1         -0.8641   -1.1361   -0.1672 O.2       1 <0>        -0.3536
      7 N1          0.2272    0.5496    0.7761 N.am      1 <0>        -0.3273
      8 C6         -0.9000    1.3792    0.7017 C.ar      1 <0>         0.0517
      9 C7         -0.7450    2.7447    0.5040 C.ar      1 <0>        -0.1438
     10 C8         -1.8554    3.5614    0.4259 C.ar      1 <0>        -0.1452
     11 C9         -3.1271    3.0185    0.5557 C.ar      1 <0>         0.0349
     12 C10        -3.2818    1.6533    0.7588 C.ar      1 <0>        -0.1282
     13 C11        -2.1713    0.8362    0.8316 C.ar      1 <0>        -0.1135
     14 N2         -4.2522    3.8467    0.4824 N.pl3     1 <0>        -0.8126
     15 S1         -4.2794    5.2815    1.3088 S.o2      1 <0>         2.7624
     16 O2         -3.0784    5.9645    0.9763 O.2       1 <0>        -0.9170
     17 O3         -5.5638    5.8500    1.0934 O.2       1 <0>        -0.9123
     18 C12        -4.1808    4.8960    3.0253 C.ar      1 <0>        -0.7562
     19 C13        -5.3287    4.5901    3.7321 C.ar      1 <0>        -0.0247
     20 C14        -5.2507    4.2825    5.0775 C.ar      1 <0>        -0.1508
     21 C15        -4.0261    4.2915    5.7187 C.ar      1 <0>        -0.0721
     22 C16        -2.8789    4.6030    5.0132 C.ar      1 <0>        -0.1512
     23 C17        -2.9562    4.9050    3.6665 C.ar      1 <0>        -0.0232
     24 H1          0.7372   -2.7804   -1.3726 H         1 <0>         0.0922
     25 H2          1.9873   -3.5396   -0.3581 H         1 <0>         0.0743
     26 H3          0.3154   -3.4088    0.2384 H         1 <0>         0.0898
     27 H4          2.7384    0.0988   -0.1224 H         1 <0>         0.0697
     28 H5          3.4023   -1.4912   -0.5688 H         1 <0>         0.0851
     29 H6          2.1522   -0.7321   -1.5833 H         1 <0>         0.0890
     30 H7          1.1382   -2.2425    2.2891 H         1 <0>         0.0865
     31 H8          2.8101   -2.3733    1.6925 H         1 <0>         0.0863
     32 H9          2.1462   -0.7832    2.1389 H         1 <0>         0.0686
     33 H10         1.0416    0.8739    1.1914 H         1 <0>         0.2336
     34 H11         0.2441    3.1675    0.4071 H         1 <0>         0.1353
     35 H12        -1.7350    4.6230    0.2675 H         1 <0>         0.1805
     36 H13        -4.2706    1.2308    0.8595 H         1 <0>         0.1380
     37 H14        -2.2915   -0.2255    0.9892 H         1 <0>         0.1682
     38 H15        -5.0163    3.5805   -0.0524 H         1 <0>         0.2538
     39 H16        -6.2861    4.5874    3.2321 H         1 <0>         0.1470
     40 H17        -6.1470    4.0388    5.6286 H         1 <0>         0.1368
     41 H18        -3.9656    4.0548    6.7707 H         1 <0>         0.1330
     42 H19        -1.9221    4.6100    5.5142 H         1 <0>         0.1360
     43 H20        -2.0598    5.1484    3.1154 H         1 <0>         0.1514
@<TRIPOS>BOND
     1    1    2 1
     2    1   24 1
     3    1   25 1
     4    1   26 1
     5    2    3 1
     6    2    4 1
     7    2    5 1
     8    3   27 1
     9    3   28 1
    10    3   29 1
    11    4   30 1
    12    4   31 1
    13    4   32 1
    14    5    6 2
    15    5    7 am
    16    7    8 1
    17    7   33 1
    18    8   13 ar
    19    8    9 ar
    20    9   10 ar
    21    9   34 1
    22   10   11 ar
    23   10   35 1
    24   11   12 ar
    25   11   14 1
    26   12   13 ar
    27   12   36 1
    28   13   37 1
    29   14   15 1
    30   14   38 1
    31   15   16 2
    32   15   17 2
    33   15   18 1
    34   18   23 ar
    35   18   19 ar
    36   19   20 ar
    37   19   39 1
    38   20   21 ar
    39   20   40 1
    40   21   22 ar
    41   21   41 1
    42   22   23 ar
    43   22   42 1
    44   23   43 1
@<TRIPOS>MOLECULE
ZINC01647428
   43    46     0     0     0
SMALL
USER_CHARGES

@<TRIPOS>ATOM
      1 C1          3.5603    3.5275   -0.0120 C.ar      1 <0>        -0.1832
      2 C2          2.3544    4.2042    0.0026 C.ar      1 <0>        -0.0758
      3 C3          1.1660    3.5005    0.0097 C.ar      1 <0>        -0.2020
      4 C4          1.1831    2.1115    0.0021 C.ar      1 <0>         0.1215
      5 C5          2.3962    1.4350   -0.0073 C.ar      1 <0>        -0.2116
      6 C6          3.5808    2.1448   -0.0201 C.ar      1 <0>        -0.0753
      7 N1         -0.0169    1.3968    0.0097 N.pl3     1 <0>        -0.2641
      8 N2          0.0021   -0.0041    0.0020 N.pl3     1 <0>        -0.2284
      9 C7         -1.1938   -0.7164    0.0096 C.2       1 <0>         0.1729
     10 C8         -1.1816   -2.1793   -0.0044 C.2       1 <0>        -0.1329
     11 C9         -2.4025   -2.8631    0.0097 C.2       1 <0>        -0.1679
     12 C10        -3.6031   -2.1196    0.0252 C.2       1 <0>         0.3439
     13 O1         -4.6794   -2.6941    0.0320 O.2       1 <0>        -0.3845
     14 N3         -3.5548   -0.7724    0.0319 N.am      1 <0>        -0.2582
     15 H1         -4.4097   -0.2537    0.0428 H         1 <0>         0.2911
     16 N4         -2.3397   -0.0832    0.0240 N.2       1 <0>        -0.1513
     17 N5         -2.0765   -4.1885   -0.0000 N.pl3     1 <0>        -0.0262
     18 N6         -0.7910   -4.2847   -0.0126 N.2       1 <0>         0.0028
     19 N7         -0.2323   -3.1245   -0.0120 N.2       1 <0>        -0.0878
     20 C11        -3.0227   -5.3070    0.0032 C.3       1 <0>         0.0352
     21 C12        -2.7897   -6.1685    1.2460 C.3       1 <0>        -0.1708
     22 C13        -3.7779   -7.3366    1.2494 C.3       1 <0>        -0.1564
     23 C14        -3.5684   -8.1854   -0.0062 C.3       1 <0>        -0.1647
     24 C15        -3.8013   -7.3240   -1.2489 C.3       1 <0>        -0.1563
     25 C16        -2.8132   -6.1559   -1.2523 C.3       1 <0>        -0.1708
     26 H2          4.4881    4.0802   -0.0175 H         1 <0>         0.1299
     27 H3          2.3418    5.2841    0.0082 H         1 <0>         0.1311
     28 H4          0.2246    4.0296    0.0215 H         1 <0>         0.1317
     29 H5          2.4130    0.3551   -0.0091 H         1 <0>         0.1247
     30 H6          4.5244    1.6195   -0.0319 H         1 <0>         0.1306
     31 H7         -0.8635    1.8703    0.0163 H         1 <0>         0.2755
     32 H8          0.8486   -0.4776   -0.0086 H         1 <0>         0.2861
     33 H9         -4.0419   -4.9207    0.0148 H         1 <0>         0.1552
     34 H10        -1.7705   -6.5548    1.2345 H         1 <0>         0.1048
     35 H11        -2.9389   -5.5637    2.1405 H         1 <0>         0.0956
     36 H12        -4.7970   -6.9502    1.2609 H         1 <0>         0.0886
     37 H13        -3.6119   -7.9503    2.1348 H         1 <0>         0.0918
     38 H14        -4.2723   -9.0176   -0.0037 H         1 <0>         0.0872
     39 H15        -2.5492   -8.5717   -0.0177 H         1 <0>         0.0873
     40 H16        -4.8205   -6.9376   -1.2374 H         1 <0>         0.0886
     41 H17        -3.6521   -7.9287   -2.1434 H         1 <0>         0.0918
     42 H18        -2.9792   -5.5421   -2.1377 H         1 <0>         0.0956
     43 H19        -1.7940   -6.5422   -1.2639 H         1 <0>         0.1048
@<TRIPOS>BOND
     1    1    6 ar
     2    1    2 ar
     3    1   26 1
     4    2    3 ar
     5    2   27 1
     6    3    4 ar
     7    3   28 1
     8    4    5 ar
     9    4    7 1
    10    5    6 ar
    11    5   29 1
    12    6   30 1
    13    7    8 1
    14    7   31 1
    15    8    9 1
    16    8   32 1
    17    9   16 2
    18    9   10 1
    19   10   19 1
    20   10   11 2
    21   11   12 1
    22   11   17 1
    23   12   13 2
    24   12   14 am
    25   14   15 1
    26   14   16 1
    27   17   18 1
    28   17   20 1
    29   18   19 2
    30   20   25 1
    31   20   21 1
    32   20   33 1
    33   21   22 1
    34   21   34 1
    35   21   35 1
    36   22   23 1
    37   22   36 1
    38   22   37 1
    39   23   24 1
    40   23   38 1
    41   23   39 1
    42   24   25 1
    43   24   40 1
    44   24   41 1
    45   25   42 1
    46   25   43 1
@<TRIPOS>MOLECULE
ZINC01647428
   43    46     0     0     0
SMALL
USER_CHARGES

@<TRIPOS>ATOM
      1 C1          3.5606    3.5272    0.0256 C.ar      1 <0>        -0.1862
      2 C2          2.3547    4.2039    0.0400 C.ar      1 <0>        -0.0759
      3 C3          1.1663    3.5003    0.0417 C.ar      1 <0>        -0.2025
      4 C4          1.1833    2.1113    0.0290 C.ar      1 <0>         0.1235
      5 C5          2.3964    1.4348    0.0198 C.ar      1 <0>        -0.2145
      6 C6          3.5811    2.1446    0.0124 C.ar      1 <0>        -0.0761
      7 N1         -0.0167    1.3966    0.0311 N.pl3     1 <0>        -0.2594
      8 N2          0.0022   -0.0042    0.0182 N.pl3     1 <0>        -0.2346
      9 C7         -1.1937   -0.7165    0.0204 C.ar      1 <0>         0.1465
     10 C8         -1.1815   -2.1793    0.0010 C.ar      1 <0>        -0.1134
     11 C9         -2.4026   -2.8628   -0.0128 C.ar      1 <0>        -0.2133
     12 C10        -3.6031   -2.1190   -0.0193 C.ar      1 <0>         0.1269
     13 O1         -4.6795   -2.6932   -0.0318 O.3       1 <0>        -0.1884
     14 N3         -3.5546   -0.7718   -0.0115 N.ar      1 <0>        -0.0854
     15 H1         -4.5298   -3.6820   -0.0359 H         1 <0>         0.2525
     16 N4         -2.3395   -0.0830    0.0136 N.ar      1 <0>        -0.1409
     17 N5         -2.0768   -4.1883   -0.0167 N.pl3     1 <0>        -0.0843
     18 N6         -0.7913   -4.2848   -0.0073 N.2       1 <0>         0.0138
     19 N7         -0.2323   -3.1245   -0.0080 N.2       1 <0>        -0.0843
     20 C11        -3.0232   -5.3065   -0.0311 C.3       1 <0>         0.0492
     21 C12        -2.8133   -6.1683    1.2156 C.3       1 <0>        -0.1739
     22 C13        -3.8016   -7.3362    1.2007 C.3       1 <0>        -0.1588
     23 C14        -3.5693   -8.1848   -0.0510 C.3       1 <0>        -0.1653
     24 C15        -3.7792   -7.3232   -1.2976 C.3       1 <0>        -0.1588
     25 C16        -2.7909   -6.1553   -1.2827 C.3       1 <0>        -0.1739
     26 H2          4.4884    4.0799    0.0243 H         1 <0>         0.1283
     27 H3          2.3421    5.2838    0.0496 H         1 <0>         0.1302
     28 H4          0.2249    4.0294    0.0533 H         1 <0>         0.1333
     29 H5          2.4132    0.3549    0.0140 H         1 <0>         0.1236
     30 H6          4.5247    1.6193    0.0008 H         1 <0>         0.1286
     31 H7         -0.8633    1.8702    0.0375 H         1 <0>         0.2798
     32 H8          0.8487   -0.4777    0.0078 H         1 <0>         0.2789
     33 H9         -4.0423   -4.9200   -0.0381 H         1 <0>         0.0984
     34 H10        -1.7941   -6.5548    1.2228 H         1 <0>         0.1171
     35 H11        -2.9787   -5.5636    2.1073 H         1 <0>         0.0977
     36 H12        -4.8207   -6.9495    1.1936 H         1 <0>         0.0826
     37 H13        -3.6521   -7.9500    2.0889 H         1 <0>         0.0989
     38 H14        -4.2734   -9.0168   -0.0615 H         1 <0>         0.0918
     39 H15        -2.5502   -8.5714   -0.0438 H         1 <0>         0.0920
     40 H16        -4.7983   -6.9365   -1.3047 H         1 <0>         0.0826
     41 H17        -3.6137   -7.9278   -2.1893 H         1 <0>         0.0990
     42 H18        -2.9404   -5.5413   -2.1709 H         1 <0>         0.0976
     43 H19        -1.7717   -6.5419   -1.2756 H         1 <0>         0.1171
@<TRIPOS>BOND
     1    1    6 ar
     2    1    2 ar
     3    1   26 1
     4    2    3 ar
     5    2   27 1
     6    3    4 ar
     7    3   28 1
     8    4    5 ar
     9    4    7 1
    10    5    6 ar
    11    5   29 1
    12    6   30 1
    13    7    8 1
    14    7   31 1
    15    8    9 1
    16    8   32 1
    17    9   10 ar
    18    9   16 ar
    19   10   19 1
    20   10   11 ar
    21   11   17 1
    22   11   12 ar
    23   12   14 ar
    24   12   13 1
    25   13   15 1
    26   14   16 ar
    27   17   18 1
    28   17   20 1
    29   18   19 2
    30   20   25 1
    31   20   21 1
    32   20   33 1
    33   21   22 1
    34   21   34 1
    35   21   35 1
    36   22   23 1
    37   22   36 1
    38   22   37 1
    39   23   24 1
    40   23   38 1
    41   23   39 1
    42   24   25 1
    43   24   40 1
    44   24   41 1
    45   25   42 1
    46   25   43 1
@<TRIPOS>MOLECULE
ZINC01648569
   41    43     0     0     0
SMALL
USER_CHARGES

@<TRIPOS>ATOM
      1 C1          9.4415    1.3291   -3.5835 C.3       1 <0>        -0.0324
      2 O1          8.8014    1.5095   -2.2927 O.3       1 <0>        -0.2802
      3 C2          7.4687    1.7007   -2.2927 C.2       1 <0>         0.4037
      4 O2          6.8572    1.7165   -3.3425 O.2       1 <0>        -0.4180
      5 N1          6.8130    1.8747   -1.1281 N.am      1 <0>        -0.3812
      6 C3          5.3628    2.0828   -1.1280 C.3       1 <0>         0.0191
      7 C4          4.8719    2.2519    0.3112 C.3       1 <0>        -0.1241
      8 C5          3.3802    2.4660    0.3112 C.2       1 <0>        -0.0092
      9 C6          2.4324    1.5099    0.2902 C.2       1 <0>        -0.2601
     10 C7          1.1464    2.2484    0.3020 C.2       1 <0>        -0.1612
     11 N2          1.4532    3.5066    0.3274 N.2       1 <0>         0.0007
     12 N3          2.7352    3.6580    0.3333 N.pl3     1 <0>        -0.1283
     13 H1          3.1958    4.5454    0.3519 H         1 <0>         0.2908
     14 C8         -0.1232    1.4956    0.2844 C.2       1 <0>         0.3216
     15 O3         -1.1936    2.0430    0.4605 O.2       1 <0>        -0.2207
     16 C9         -0.0242    0.0306    0.0333 C.2       1 <0>         0.0460
     17 C10         1.1536   -0.6299    0.0241 C.2       1 <0>        -0.2131
     18 C11         2.4426    0.0374    0.2611 C.2       1 <0>         0.3404
     19 O4          3.4689   -0.5969    0.4249 O.2       1 <0>        -0.2818
     20 N4         -1.1824   -0.6801   -0.1988 N.pl3     1 <0>        -0.3098
     21 C12        -2.0078   -0.3385   -1.2714 C.ar      1 <0>         0.1040
     22 C13        -1.5926    0.6144   -2.1939 C.ar      1 <0>        -0.1792
     23 C14        -2.4099    0.9467   -3.2561 C.ar      1 <0>        -0.0845
     24 C15        -3.6445    0.3394   -3.3972 C.ar      1 <0>        -0.1666
     25 C16        -4.0632   -0.6055   -2.4781 C.ar      1 <0>        -0.0882
     26 C17        -3.2491   -0.9463   -1.4161 C.ar      1 <0>        -0.1846
     27 H2          9.0200    0.4544   -4.0790 H         1 <0>         0.0853
     28 H3          9.2723    2.2123   -4.1995 H         1 <0>         0.0830
     29 H4         10.5125    1.1852   -3.4411 H         1 <0>         0.1030
     30 H5          7.3012    1.8621   -0.2900 H         1 <0>         0.2315
     31 H6          4.8721    1.2210   -1.5804 H         1 <0>         0.1136
     32 H7          5.1243    2.9789   -1.7009 H         1 <0>         0.0922
     33 H8          5.3627    3.1137    0.7635 H         1 <0>         0.0910
     34 H9          5.1104    1.3558    0.8841 H         1 <0>         0.1356
     35 H10         1.1489   -1.6932   -0.1650 H         1 <0>         0.1624
     36 H11        -1.4237   -1.4176    0.3832 H         1 <0>         0.2460
     37 H12        -0.6304    1.0919   -2.0820 H         1 <0>         0.1320
     38 H13        -2.0865    1.6846   -3.9752 H         1 <0>         0.1322
     39 H14        -4.2833    0.6040   -4.2268 H         1 <0>         0.1298
     40 H15        -5.0279   -1.0776   -2.5915 H         1 <0>         0.1305
     41 H16        -3.5769   -1.6840   -0.6987 H         1 <0>         0.1289
@<TRIPOS>BOND
     1    1    2 1
     2    1   27 1
     3    1   28 1
     4    1   29 1
     5    2    3 1
     6    3    4 2
     7    3    5 am
     8    5    6 1
     9    5   30 1
    10    6    7 1
    11    6   31 1
    12    6   32 1
    13    7    8 1
    14    7   33 1
    15    7   34 1
    16    8   12 1
    17    8    9 2
    18    9   18 1
    19    9   10 1
    20   10   11 2
    21   10   14 1
    22   11   12 1
    23   12   13 1
    24   14   15 2
    25   14   16 1
    26   16   17 2
    27   16   20 1
    28   17   18 1
    29   17   35 1
    30   18   19 2
    31   20   21 1
    32   20   36 1
    33   21   26 ar
    34   21   22 ar
    35   22   23 ar
    36   22   37 1
    37   23   24 ar
    38   23   38 1
    39   24   25 ar
    40   24   39 1
    41   25   26 ar
    42   25   40 1
    43   26   41 1
@<TRIPOS>MOLECULE
ZINC01649532
   41    43     0     0     0
SMALL
USER_CHARGES

@<TRIPOS>ATOM
      1 C1          3.7009    2.0838   -0.0216 C.3       1 <0>        -0.0612
      2 N1          2.4067    1.3973   -0.0130 N.am      1 <0>        -0.3032
      3 C2          1.2681    2.1251    0.0014 C.2       1 <0>         0.3551
      4 O1          1.3033    3.3404    0.0071 O.2       1 <0>        -0.3161
      5 C3         -0.0170    1.4048    0.0098 C.ar      1 <0>        -0.2501
      6 C4         -1.2341    2.0768    0.0307 C.ar      1 <0>         0.0683
      7 C5         -2.4044    1.3082    0.0329 C.ar      1 <0>        -0.2366
      8 C6         -2.3025   -0.0871    0.0244 C.ar      1 <0>         0.0444
      9 N2         -1.1319   -0.6878    0.0096 N.ar      1 <0>        -0.2206
     10 C7          0.0021   -0.0041    0.0020 C.ar      1 <0>         0.1930
     11 N3          1.2251   -0.6453   -0.0131 N.am      1 <0>        -0.2890
     12 H1          1.2581   -1.6447   -0.0188 H         1 <0>         0.2864
     13 C8          2.3708    0.0556   -0.0202 C.2       1 <0>         0.4095
     14 O2          3.4231   -0.5528   -0.0335 O.2       1 <0>        -0.3686
     15 C9         -3.7280    1.9613    0.0501 C.2       1 <0>         0.3714
     16 O3         -3.8073    3.1749    0.0574 O.2       1 <0>        -0.3150
     17 N4         -4.8488    1.2127    0.0577 N.am      1 <0>        -0.3297
     18 N5         -6.1051    1.8326    0.0739 N.2       1 <0>        -0.0010
     19 C10        -7.1845    1.1116    0.0812 C.2       1 <0>        -0.0957
     20 C11        -8.5064    1.7638    0.0984 C.ar      1 <0>        -0.0948
     21 C12        -8.5998    3.1581    0.1126 C.ar      1 <0>        -0.0445
     22 C13        -9.8377    3.7634    0.1242 C.ar      1 <0>        -0.2292
     23 C14       -10.9914    2.9899    0.1315 C.ar      1 <0>         0.1132
     24 C15       -10.9033    1.6038    0.1227 C.ar      1 <0>        -0.1661
     25 C16        -9.6698    0.9897    0.1062 C.ar      1 <0>        -0.0705
     26 O4        -12.2096    3.5910    0.1478 O.3       1 <0>        -0.2099
     27 C17       -12.2279    5.0198    0.1561 C.3       1 <0>        -0.0644
     28 H2          4.5033    1.3462   -0.0336 H         1 <0>         0.1236
     29 H3          3.7724    2.7131   -0.9088 H         1 <0>         0.0970
     30 H4          3.7898    2.7029    0.8711 H         1 <0>         0.0970
     31 H5         -1.2755    3.1560    0.0370 H         1 <0>         0.1938
     32 H6         -3.2030   -0.6833    0.0305 H         1 <0>         0.1618
     33 H7         -4.7856    0.2448    0.0518 H         1 <0>         0.2037
     34 H8         -7.1141    0.0339    0.0747 H         1 <0>         0.1138
     35 H9         -7.7033    3.7603    0.1107 H         1 <0>         0.1610
     36 H10        -9.9110    4.8409    0.1311 H         1 <0>         0.1411
     37 H11       -11.8030    1.0063    0.1292 H         1 <0>         0.1467
     38 H12        -9.6023   -0.0882    0.0998 H         1 <0>         0.1334
     39 H13       -11.7095    5.3847    1.0427 H         1 <0>         0.0710
     40 H14       -11.7282    5.3948   -0.7371 H         1 <0>         0.0710
     41 H15       -13.2601    5.3698    0.1689 H         1 <0>         0.1101
@<TRIPOS>BOND
     1    1    2 1
     2    1   28 1
     3    1   29 1
     4    1   30 1
     5    2   13 am
     6    2    3 am
     7    3    4 2
     8    3    5 1
     9    5   10 ar
    10    5    6 ar
    11    6    7 ar
    12    6   31 1
    13    7    8 ar
    14    7   15 1
    15    8    9 ar
    16    8   32 1
    17    9   10 ar
    18   10   11 1
    19   11   12 1
    20   11   13 am
    21   13   14 2
    22   15   16 2
    23   15   17 am
    24   17   18 1
    25   17   33 1
    26   18   19 2
    27   19   20 1
    28   19   34 1
    29   20   25 ar
    30   20   21 ar
    31   21   22 ar
    32   21   35 1
    33   22   23 ar
    34   22   36 1
    35   23   24 ar
    36   23   26 1
    37   24   25 ar
    38   24   37 1
    39   25   38 1
    40   26   27 1
    41   27   39 1
    42   27   40 1
    43   27   41 1
@<TRIPOS>MOLECULE
ZINC01659142
   43    46     0     0     0
SMALL
USER_CHARGES

@<TRIPOS>ATOM
      1 C1          4.6631   -0.8897   -1.6933 C.3       1 <0>        -0.2112
      2 C2          4.8012   -0.3862   -0.2552 C.3       1 <0>        -0.1154
      3 C3          4.7983    1.1208   -0.2481 C.ar      1 <0>        -0.0757
      4 C4          3.5810    1.8146   -0.1271 C.ar      1 <0>         0.1224
      5 N1          3.5597    3.1341   -0.1249 N.ar      1 <0>        -0.1911
      6 C5          4.7078    3.8151   -0.2280 C.ar      1 <0>         0.0194
      7 C6          4.7183    5.2203   -0.2240 C.ar      1 <0>        -0.1085
      8 C7          5.8999    5.8869   -0.3364 C.ar      1 <0>        -0.1066
      9 C8          7.1036    5.1955   -0.4557 C.ar      1 <0>        -0.1382
     10 C9          7.1314    3.8345   -0.4637 C.ar      1 <0>        -0.0780
     11 C10         5.9316    3.1121   -0.3498 C.ar      1 <0>        -0.0691
     12 N2          5.9304    1.7728   -0.3552 N.ar      1 <0>        -0.0899
     13 N3          2.3932    1.1066   -0.0148 N.pl3     1 <0>        -0.2875
     14 C11         1.1935    1.7862    0.2247 C.ar      1 <0>         0.0558
     15 C12         0.0201    1.3635   -0.4009 C.ar      1 <0>        -0.1296
     16 C13        -1.1603    2.0142   -0.1795 C.ar      1 <0>        -0.1059
     17 C14        -1.2002    3.1082    0.6764 C.ar      1 <0>        -0.0996
     18 C15        -0.0246    3.5411    1.3182 C.ar      1 <0>        -0.0781
     19 C16         1.1779    2.8714    1.0796 C.ar      1 <0>        -0.0598
     20 N4         -0.3899    4.5981    2.0716 N.2       1 <0>        -0.0965
     21 N5         -1.6514    4.8059    1.9272 N.2       1 <0>         0.0208
     22 N6         -2.1835    3.9646    1.1096 N.pl3     1 <0>        -0.1248
     23 C17        -3.5955    3.9187    0.7217 C.3       1 <0>         0.0058
     24 C18        -4.3634    3.0239    1.6966 C.3       1 <0>        -0.0235
     25 O1         -5.7407    2.9791    1.3182 O.3       1 <0>        -0.3535
     26 H1          3.7270   -0.5262   -2.1173 H         1 <0>         0.0718
     27 H2          5.4987   -0.5220   -2.2889 H         1 <0>         0.0932
     28 H3          4.6652   -1.9797   -1.6985 H         1 <0>         0.0782
     29 H4          5.7372   -0.7498    0.1688 H         1 <0>         0.1132
     30 H5          3.9656   -0.7539    0.3403 H         1 <0>         0.0809
     31 H6          3.7928    5.7692   -0.1318 H         1 <0>         0.1529
     32 H7          5.9043    6.9669   -0.3326 H         1 <0>         0.1351
     33 H8          8.0279    5.7472   -0.5435 H         1 <0>         0.1341
     34 H9          8.0719    3.3121   -0.5576 H         1 <0>         0.1464
     35 H10         2.3942    0.1406   -0.1024 H         1 <0>         0.2501
     36 H11         0.0455    0.5138   -1.0671 H         1 <0>         0.1361
     37 H12        -2.0623    1.6787   -0.6697 H         1 <0>         0.1332
     38 H13         2.0873    3.1966    1.5631 H         1 <0>         0.1704
     39 H14        -4.0123    4.9256    0.7473 H         1 <0>         0.1316
     40 H15        -3.6822    3.5152   -0.2872 H         1 <0>         0.1168
     41 H16        -3.9467    2.0170    1.6709 H         1 <0>         0.0692
     42 H17        -4.2768    3.4274    2.7054 H         1 <0>         0.0819
     43 H18        -6.2890    2.4286    1.8938 H         1 <0>         0.2234
@<TRIPOS>BOND
     1    1    2 1
     2    1   26 1
     3    1   27 1
     4    1   28 1
     5    2    3 1
     6    2   29 1
     7    2   30 1
     8    3   12 ar
     9    3    4 ar
    10    4    5 ar
    11    4   13 1
    12    5    6 ar
    13    6   11 ar
    14    6    7 ar
    15    7    8 ar
    16    7   31 1
    17    8    9 ar
    18    8   32 1
    19    9   10 ar
    20    9   33 1
    21   10   11 ar
    22   10   34 1
    23   11   12 ar
    24   13   14 1
    25   13   35 1
    26   14   19 ar
    27   14   15 ar
    28   15   16 ar
    29   15   36 1
    30   16   17 ar
    31   16   37 1
    32   17   22 1
    33   17   18 ar
    34   18   19 ar
    35   18   20 1
    36   19   38 1
    37   20   21 2
    38   21   22 1
    39   22   23 1
    40   23   24 1
    41   23   39 1
    42   23   40 1
    43   24   25 1
    44   24   41 1
    45   24   42 1
    46   25   43 1
@<TRIPOS>MOLECULE
ZINC01673110
   40    41     0     0     0
SMALL
USER_CHARGES

@<TRIPOS>ATOM
      1 C1         -2.1764   -0.0512   -0.6001 C.3       1 <0>        -0.2386
      2 C2         -2.1968    1.4557   -0.5956 C.2       1 <0>         0.3010
      3 O1         -3.1145    2.0513   -1.1190 O.2       1 <0>        -0.3544
      4 N1         -1.1980    2.1414   -0.0050 N.am      1 <0>        -0.3295
      5 C3         -1.1664    3.5381   -0.0834 C.ar      1 <0>         0.0607
      6 C4          0.0498    4.2030   -0.1680 C.ar      1 <0>        -0.1572
      7 C5          0.0773    5.5813   -0.2510 C.ar      1 <0>        -0.1040
      8 C6         -1.1040    6.2999   -0.2378 C.ar      1 <0>        -0.1203
      9 C7         -2.3165    5.6412   -0.1479 C.ar      1 <0>        -0.0992
     10 C8         -2.3511    4.2626   -0.0709 C.ar      1 <0>        -0.1215
     11 C9         -1.0701    7.8042   -0.3222 C.3       1 <0>         0.1292
     12 C10        -0.9975    8.2247   -1.7675 C.ar      1 <0>        -0.1206
     13 C11         0.2141    8.1992   -2.4335 C.ar      1 <0>        -0.1026
     14 C12         0.2831    8.5794   -3.7595 C.ar      1 <0>        -0.1567
     15 C13        -0.8642    8.9973   -4.4210 C.ar      1 <0>         0.0621
     16 C14        -2.0785    9.0268   -3.7478 C.ar      1 <0>        -0.1211
     17 C15        -2.1417    8.6408   -2.4233 C.ar      1 <0>        -0.0976
     18 N2         -0.7969    9.3874   -5.7631 N.am      1 <0>        -0.3295
     19 C16        -1.5826   10.3847   -6.2152 C.2       1 <0>         0.3012
     20 O2         -2.4077   10.8868   -5.4816 O.2       1 <0>        -0.3542
     21 C17        -1.4360   10.8761   -7.6323 C.3       1 <0>        -0.2389
     22 O3          0.0770    8.2946    0.3747 O.3       1 <0>        -0.3358
     23 H1         -1.6577   -0.4048   -1.4911 H         1 <0>         0.1078
     24 H2         -1.6577   -0.4102    0.2888 H         1 <0>         0.0830
     25 H3         -3.1990   -0.4284   -0.6012 H         1 <0>         0.1177
     26 H4         -0.5010    1.6666    0.4743 H         1 <0>         0.2317
     27 H5          0.9730    3.6425   -0.1735 H         1 <0>         0.1285
     28 H6          1.0227    6.0987   -0.3220 H         1 <0>         0.1232
     29 H7         -3.2375    6.2052   -0.1382 H         1 <0>         0.1354
     30 H8         -3.2984    3.7487   -0.0014 H         1 <0>         0.1672
     31 H9         -1.9729    8.2140    0.1306 H         1 <0>         0.1321
     32 H10         1.1067    7.8781   -1.9173 H         1 <0>         0.1224
     33 H11         1.2289    8.5554   -4.2802 H         1 <0>         0.1285
     34 H12        -2.9726    9.3510   -4.2596 H         1 <0>         0.1672
     35 H13        -3.0857    8.6635   -1.8992 H         1 <0>         0.1351
     36 H14        -0.1848    8.9399   -6.3681 H         1 <0>         0.2316
     37 H15        -2.0966   10.3053   -8.2849 H         1 <0>         0.1059
     38 H16        -1.7018   11.9321   -7.6800 H         1 <0>         0.1189
     39 H17        -0.4036   10.7462   -7.9569 H         1 <0>         0.0838
     40 H18         0.9182    7.9701    0.0250 H         1 <0>         0.2077
@<TRIPOS>BOND
     1    1    2 1
     2    1   23 1
     3    1   24 1
     4    1   25 1
     5    2    3 2
     6    2    4 am
     7    4    5 1
     8    4   26 1
     9    5   10 ar
    10    5    6 ar
    11    6    7 ar
    12    6   27 1
    13    7    8 ar
    14    7   28 1
    15    8    9 ar
    16    8   11 1
    17    9   10 ar
    18    9   29 1
    19   10   30 1
    20   11   12 1
    21   11   22 1
    22   11   31 1
    23   12   17 ar
    24   12   13 ar
    25   13   14 ar
    26   13   32 1
    27   14   15 ar
    28   14   33 1
    29   15   16 ar
    30   15   18 1
    31   16   17 ar
    32   16   34 1
    33   17   35 1
    34   18   19 am
    35   18   36 1
    36   19   20 2
    37   19   21 1
    38   21   37 1
    39   21   38 1
    40   21   39 1
    41   22   40 1
@<TRIPOS>MOLECULE
ZINC01677089
   38    39     0     0     0
SMALL
USER_CHARGES

@<TRIPOS>ATOM
      1 C1          4.5101    1.0945   -1.4965 C.3       1 <0>        -0.2170
      2 C2          3.1439    1.7730   -1.6146 C.3       1 <0>         0.0133
      3 O1          2.1865    1.0840   -0.7680 O.3       1 <0>        -0.2784
      4 C3          0.9268    1.5595   -0.7571 C.2       1 <0>         0.4048
      5 O2          0.6356    2.5239   -1.4366 O.2       1 <0>        -0.4016
      6 N1         -0.0111    0.9658    0.0074 N.am      1 <0>        -0.3143
      7 C4         -1.2917    1.5223    0.1021 C.ar      1 <0>         0.1316
      8 C5         -1.4570    2.9002    0.0526 C.ar      1 <0>        -0.1524
      9 C6         -2.7226    3.4460    0.1416 C.ar      1 <0>        -0.0105
     10 C7         -3.8235    2.6225    0.2903 C.ar      1 <0>        -0.7588
     11 C8         -3.6617    1.2503    0.3451 C.ar      1 <0>        -0.0096
     12 C9         -2.3992    0.6980    0.2515 C.ar      1 <0>        -0.1853
     13 S1         -5.4358    3.3231    0.4096 S.o2      1 <0>         2.7473
     14 O3         -5.3722    4.5974   -0.2160 O.2       1 <0>        -0.9101
     15 O4         -6.3481    2.3156   -0.0050 O.2       1 <0>        -0.9128
     16 C10        -5.7514    3.6161    2.1181 C.ar      1 <0>        -0.8003
     17 C11        -6.3497    2.6349    2.8873 C.ar      1 <0>         0.0174
     18 C12        -6.5933    2.8592    4.2281 C.ar      1 <0>        -0.2307
     19 C13        -6.2470    4.0762    4.8012 C.ar      1 <0>         0.1680
     20 C14        -5.6513    5.0617    4.0244 C.ar      1 <0>        -0.2303
     21 C15        -5.4054    4.8288    2.6855 C.ar      1 <0>         0.0183
     22 N2         -6.4968    4.3083    6.1557 N.pl3     1 <0>        -0.4090
     23 H1          4.8469    1.1337   -0.4605 H         1 <0>         0.0868
     24 H2          4.4279    0.0546   -1.8126 H         1 <0>         0.0875
     25 H3          5.2289    1.6117   -2.1320 H         1 <0>         0.0938
     26 H4          2.8071    1.7338   -2.6505 H         1 <0>         0.0940
     27 H5          3.2261    2.8129   -1.2984 H         1 <0>         0.0916
     28 H6          0.2003    0.1507    0.4887 H         1 <0>         0.2441
     29 H7         -0.5972    3.5441   -0.0590 H         1 <0>         0.1670
     30 H8         -2.8522    4.5174    0.0991 H         1 <0>         0.1538
     31 H9         -4.5234    0.6097    0.4610 H         1 <0>         0.1514
     32 H10        -2.2736   -0.3738    0.2940 H         1 <0>         0.1370
     33 H11        -6.6230    1.6907    2.4399 H         1 <0>         0.1476
     34 H12        -7.0566    2.0908    4.8292 H         1 <0>         0.1346
     35 H13        -5.3812    6.0092    4.4668 H         1 <0>         0.1351
     36 H14        -4.9419    5.5944    2.0810 H         1 <0>         0.1485
     37 H15        -6.2542    5.1584    6.5549 H         1 <0>         0.2239
     38 H16        -6.9128    3.6194    6.6972 H         1 <0>         0.2237
@<TRIPOS>BOND
     1    1    2 1
     2    1   23 1
     3    1   24 1
     4    1   25 1
     5    2    3 1
     6    2   26 1
     7    2   27 1
     8    3    4 1
     9    4    5 2
    10    4    6 am
    11    6    7 1
    12    6   28 1
    13    7   12 ar
    14    7    8 ar
    15    8    9 ar
    16    8   29 1
    17    9   10 ar
    18    9   30 1
    19   10   11 ar
    20   10   13 1
    21   11   12 ar
    22   11   31 1
    23   12   32 1
    24   13   14 2
    25   13   15 2
    26   13   16 1
    27   16   21 ar
    28   16   17 ar
    29   17   18 ar
    30   17   33 1
    31   18   19 ar
    32   18   34 1
    33   19   20 ar
    34   19   22 1
    35   20   21 ar
    36   20   35 1
    37   21   36 1
    38   22   37 1
    39   22   38 1
@<TRIPOS>MOLECULE
ZINC01679981
   39    40     0     0     0
SMALL
USER_CHARGES

@<TRIPOS>ATOM
      1 C1          0.5685    2.3816    2.4593 C.3       1 <0>        -0.2407
      2 C2         -0.6795    1.5908    2.1624 C.2       1 <0>         0.2998
      3 O1         -0.9827    0.6497    2.8650 O.2       1 <0>        -0.3454
      4 N1         -1.4558    1.9257    1.1128 N.am      1 <0>        -0.3329
      5 C3         -2.5586    1.1302    0.7749 C.ar      1 <0>         0.0987
      6 C4         -2.9091    0.9602   -0.5579 C.ar      1 <0>        -0.1900
      7 C5         -3.9924    0.1718   -0.8942 C.ar      1 <0>        -0.0512
      8 C6         -4.7399   -0.4429    0.1007 C.ar      1 <0>        -0.2979
      9 C7         -4.3932   -0.2688    1.4394 C.ar      1 <0>         0.1313
     10 C8         -3.3037    0.5171    1.7735 C.ar      1 <0>        -0.1686
     11 O2         -5.1238   -0.8705    2.4159 O.3       1 <0>        -0.2756
     12 S1         -6.1257   -1.4430   -0.3283 S.3       1 <0>         0.2783
     13 C9         -5.5385   -3.0925   -0.1304 C.ar      1 <0>        -0.2382
     14 C10        -4.2029   -3.3231    0.1682 C.ar      1 <0>        -0.1005
     15 C11        -3.7423   -4.6162    0.3239 C.ar      1 <0>        -0.1556
     16 C12        -4.6141   -5.6877    0.1821 C.ar      1 <0>         0.0631
     17 C13        -5.9511   -5.4615   -0.1171 C.ar      1 <0>        -0.1410
     18 C14        -6.4162   -4.1664   -0.2679 C.ar      1 <0>         0.0964
     19 O3         -7.7265   -3.9426   -0.5549 O.3       1 <0>        -0.2791
     20 N2         -4.1442   -6.9981    0.3405 N.am      1 <0>        -0.3299
     21 C15        -4.9318   -7.9323    0.9093 C.2       1 <0>         0.2990
     22 O4         -6.0758   -7.6612    1.2075 O.2       1 <0>        -0.3493
     23 C16        -4.3910   -9.3136    1.1750 C.3       1 <0>        -0.2384
     24 H1          1.0641    1.9630    3.3352 H         1 <0>         0.1215
     25 H2          1.2415    2.3333    1.6033 H         1 <0>         0.0976
     26 H3          0.3025    3.4205    2.6542 H         1 <0>         0.0961
     27 H4         -1.2510    2.7176    0.5913 H         1 <0>         0.2347
     28 H5         -2.3313    1.4417   -1.3330 H         1 <0>         0.1342
     29 H6         -4.2609    0.0375   -1.9316 H         1 <0>         0.1477
     30 H7         -3.0335    0.6535    2.8103 H         1 <0>         0.1789
     31 H8         -5.8602   -0.3355    2.7424 H         1 <0>         0.2402
     32 H9         -3.5232   -2.4912    0.2793 H         1 <0>         0.1470
     33 H10        -2.7027   -4.7939    0.5566 H         1 <0>         0.1321
     34 H11        -6.6287   -6.2953   -0.2272 H         1 <0>         0.1748
     35 H12        -7.9229   -3.9165   -1.5014 H         1 <0>         0.2255
     36 H13        -3.2520   -7.2330    0.0409 H         1 <0>         0.2311
     37 H14        -3.9465   -9.3447    2.1698 H         1 <0>         0.1085
     38 H15        -5.2025  -10.0389    1.1168 H         1 <0>         0.1167
     39 H16        -3.6327   -9.5563    0.4305 H         1 <0>         0.0813
@<TRIPOS>BOND
     1    1    2 1
     2    1   24 1
     3    1   25 1
     4    1   26 1
     5    2    3 2
     6    2    4 am
     7    4    5 1
     8    4   27 1
     9    5   10 ar
    10    5    6 ar
    11    6    7 ar
    12    6   28 1
    13    7    8 ar
    14    7   29 1
    15    8    9 ar
    16    8   12 1
    17    9   10 ar
    18    9   11 1
    19   10   30 1
    20   11   31 1
    21   12   13 1
    22   13   18 ar
    23   13   14 ar
    24   14   15 ar
    25   14   32 1
    26   15   16 ar
    27   15   33 1
    28   16   17 ar
    29   16   20 1
    30   17   18 ar
    31   17   34 1
    32   18   19 1
    33   19   35 1
    34   20   21 am
    35   20   36 1
    36   21   22 2
    37   21   23 1
    38   23   37 1
    39   23   38 1
    40   23   39 1
@<TRIPOS>MOLECULE
ZINC01683957
   42    43     0     0     0
SMALL
USER_CHARGES

@<TRIPOS>ATOM
      1 C1         -1.1588    0.6427   -3.6078 C.3       1 <0>        -0.2128
      2 C2         -1.1888   -0.1847   -2.3212 C.3       1 <0>        -0.1587
      3 C3          0.1214    0.0139   -1.5565 C.3       1 <0>         0.0263
      4 H1          0.9621   -0.2255   -2.2077 H         1 <0>         0.0885
      5 C4          0.1438   -0.9074   -0.3352 C.3       1 <0>        -0.2413
      6 O1          0.2221    1.3738   -1.1292 O.3       1 <0>        -0.2068
      7 C5          1.4743    1.8754   -0.9556 C.ar      1 <0>         0.1060
      8 C6          2.5770    1.0422   -1.0723 C.ar      1 <0>        -0.2254
      9 C7          3.8492    1.5518   -0.9010 C.ar      1 <0>        -0.0875
     10 C8          4.0236    2.8964   -0.6013 C.ar      1 <0>        -0.0057
     11 C9          2.9187    3.7287   -0.4794 C.ar      1 <0>        -0.0734
     12 C10         1.6475    3.2186   -0.6563 C.ar      1 <0>        -0.1583
     13 N1          5.3120    3.4125   -0.4227 N.pl3     1 <0>        -0.8233
     14 S1          5.8584    3.7665    1.0999 S.o2      1 <0>         2.7653
     15 O2          7.1867    4.2495    0.9526 O.2       1 <0>        -0.9215
     16 O3          4.8371    4.5264    1.7315 O.2       1 <0>        -0.9169
     17 C11         5.9708    2.2442    1.9801 C.ar      1 <0>        -0.8149
     18 C12         4.9282    1.8388    2.7930 C.ar      1 <0>         0.0235
     19 C13         5.0106    0.6435    3.4799 C.ar      1 <0>        -0.2323
     20 C14         6.1473   -0.1463    3.3623 C.ar      1 <0>         0.1675
     21 C15         7.1951    0.2667    2.5493 C.ar      1 <0>        -0.2332
     22 C16         7.1038    1.4604    1.8608 C.ar      1 <0>         0.0181
     23 N2          6.2361   -1.3532    4.0597 N.pl3     1 <0>        -0.4098
     24 H2         -1.0396    1.6972   -3.3590 H         1 <0>         0.0894
     25 H3         -0.3232    0.3191   -4.2285 H         1 <0>         0.0706
     26 H4         -2.0922    0.5012   -4.1526 H         1 <0>         0.0747
     27 H5         -1.3079   -1.2392   -2.5700 H         1 <0>         0.0906
     28 H6         -2.0244    0.1388   -1.7005 H         1 <0>         0.0968
     29 H7         -0.6968   -0.6680    0.3160 H         1 <0>         0.0917
     30 H8          0.0671   -1.9447   -0.6611 H         1 <0>         0.0819
     31 H9          1.0773   -0.7659    0.2096 H         1 <0>         0.0847
     32 H10         2.4409   -0.0045   -1.3010 H         1 <0>         0.1407
     33 H11         4.7079    0.9038   -0.9960 H         1 <0>         0.1363
     34 H12         3.0535    4.7747   -0.2467 H         1 <0>         0.1573
     35 H13         0.7881    3.8659   -0.5619 H         1 <0>         0.1492
     36 H14         5.8850    3.5629   -1.1908 H         1 <0>         0.2485
     37 H15         4.0467    2.4557    2.8877 H         1 <0>         0.1539
     38 H16         4.1941    0.3253    4.1112 H         1 <0>         0.1349
     39 H17         8.0804   -0.3448    2.4560 H         1 <0>         0.1339
     40 H18         7.9180    1.7819    1.2283 H         1 <0>         0.1447
     41 H19         7.0302   -1.9040    3.9766 H         1 <0>         0.2232
     42 H20         5.5038   -1.6406    4.6271 H         1 <0>         0.2236
@<TRIPOS>BOND
     1    1    2 1
     2    1   24 1
     3    1   25 1
     4    1   26 1
     5    2    3 1
     6    2   27 1
     7    2   28 1
     8    3    4 1
     9    3    5 1
    10    3    6 1
    11    5   29 1
    12    5   30 1
    13    5   31 1
    14    6    7 1
    15    7   12 ar
    16    7    8 ar
    17    8    9 ar
    18    8   32 1
    19    9   10 ar
    20    9   33 1
    21   10   11 ar
    22   10   13 1
    23   11   12 ar
    24   11   34 1
    25   12   35 1
    26   13   14 1
    27   13   36 1
    28   14   15 2
    29   14   16 2
    30   14   17 1
    31   17   22 ar
    32   17   18 ar
    33   18   19 ar
    34   18   37 1
    35   19   20 ar
    36   19   38 1
    37   20   21 ar
    38   20   23 1
    39   21   22 ar
    40   21   39 1
    41   22   40 1
    42   23   41 1
    43   23   42 1
@<TRIPOS>MOLECULE
ZINC01690047
   40    42     0     0     0
SMALL
USER_CHARGES

@<TRIPOS>ATOM
      1 C1          1.1757    1.2696    8.3527 C.3       1 <0>        -0.1850
      2 C2          0.1222    0.6681    7.4587 C.ar      1 <0>        -0.0125
      3 C3         -1.2033    1.0289    7.6127 C.ar      1 <0>        -0.1548
      4 C4         -2.1696    0.4775    6.7924 C.ar      1 <0>        -0.0205
      5 C5         -1.8104   -0.4345    5.8176 C.ar      1 <0>        -0.7695
      6 C6         -0.4856   -0.7993    5.6670 C.ar      1 <0>        -0.0123
      7 C7          0.4812   -0.2450    6.4849 C.ar      1 <0>        -0.1521
      8 S1         -3.0421   -1.1374    4.7719 S.o2      1 <0>         2.7520
      9 O1         -4.2724   -1.0491    5.4774 O.2       1 <0>        -0.8851
     10 O2         -2.5198   -2.3729    4.3029 O.2       1 <0>        -0.8436
     11 N1         -3.1829   -0.1506    3.4495 N.am      1 <0>        -0.6575
     12 C8         -2.5378   -0.3414    2.2816 C.2       1 <0>         0.3281
     13 O3         -1.7635   -1.2456    2.0084 O.2       1 <0>        -0.3141
     14 C9         -2.9386    0.7147    1.4408 C.2       1 <0>        -0.3726
     15 C10        -3.7981    1.4493    2.2131 C.2       1 <0>         0.2123
     16 O4         -3.8787    0.8376    3.4024 O.3       1 <0>        -0.0174
     17 N2         -4.4568    2.5973    1.8377 N.pl3     1 <0>        -0.3648
     18 C11        -2.5137    0.9795    0.0193 C.3       1 <0>        -0.0145
     19 C12        -1.2190    1.7506    0.0173 C.ar      1 <0>        -0.0743
     20 C13        -0.0126    1.0758    0.0080 C.ar      1 <0>        -0.1099
     21 C14         1.1750    1.7832    0.0004 C.ar      1 <0>        -0.1256
     22 C15         1.1563    3.1654    0.0076 C.ar      1 <0>        -0.1313
     23 C16        -0.0501    3.8402    0.0223 C.ar      1 <0>        -0.1287
     24 C17        -1.2377    3.1328    0.0299 C.ar      1 <0>        -0.1318
     25 H1          1.2987    0.6472    9.2390 H         1 <0>         0.0957
     26 H2          2.1213    1.3250    7.8135 H         1 <0>         0.0885
     27 H3          0.8690    2.2718    8.6522 H         1 <0>         0.0868
     28 H4         -1.4839    1.7420    8.3738 H         1 <0>         0.1378
     29 H5         -3.2052    0.7594    6.9127 H         1 <0>         0.1492
     30 H6         -0.2055   -1.5152    4.9084 H         1 <0>         0.1614
     31 H7          1.5168   -0.5272    6.3647 H         1 <0>         0.1407
     32 H8         -4.3305    2.9597    0.9468 H         1 <0>         0.2599
     33 H9         -5.0476    3.0443    2.4639 H         1 <0>         0.2336
     34 H10        -3.2837    1.5610   -0.4877 H         1 <0>         0.0758
     35 H11        -2.3729    0.0317   -0.5003 H         1 <0>         0.1128
     36 H12         0.0021   -0.0041    0.0020 H         1 <0>         0.1471
     37 H13         2.1175    1.2560   -0.0115 H         1 <0>         0.1305
     38 H14         2.0841    3.7181    0.0014 H         1 <0>         0.1271
     39 H15        -0.0647    4.9201    0.0276 H         1 <0>         0.1255
     40 H16        -2.1802    3.6600    0.0410 H         1 <0>         0.1133
@<TRIPOS>BOND
     1    1    2 1
     2    1   25 1
     3    1   26 1
     4    1   27 1
     5    2    7 ar
     6    2    3 ar
     7    3    4 ar
     8    3   28 1
     9    4    5 ar
    10    4   29 1
    11    5    6 ar
    12    5    8 1
    13    6    7 ar
    14    6   30 1
    15    7   31 1
    16    8    9 2
    17    8   10 2
    18    8   11 1
    19   11   16 1
    20   11   12 am
    21   12   13 2
    22   12   14 1
    23   14   15 2
    24   14   18 1
    25   15   16 1
    26   15   17 1
    27   17   32 1
    28   17   33 1
    29   18   19 1
    30   18   34 1
    31   18   35 1
    32   19   24 ar
    33   19   20 ar
    34   20   21 ar
    35   20   36 1
    36   21   22 ar
    37   21   37 1
    38   22   23 ar
    39   22   38 1
    40   23   24 ar
    41   23   39 1
    42   24   40 1
@<TRIPOS>MOLECULE
ZINC01741722
   36    37     0     0     0
SMALL
USER_CHARGES

@<TRIPOS>ATOM
      1 C1          1.6629   -0.2217   -1.5501 C.3       1 <0>        -0.2405
      2 C2          0.3354    0.4286   -1.2570 C.2       1 <0>         0.3015
      3 O1         -0.3374    0.8699   -2.1647 O.2       1 <0>        -0.3493
      4 N1         -0.1042    0.5200    0.0138 N.am      1 <0>        -0.3315
      5 C3         -1.2936    1.2039    0.2959 C.ar      1 <0>         0.0713
      6 C4         -1.4173    1.9244    1.4764 C.ar      1 <0>        -0.1520
      7 C5         -2.5881    2.6027    1.7515 C.ar      1 <0>        -0.1011
      8 C6         -3.6449    2.5550    0.8541 C.ar      1 <0>         0.0459
      9 C7         -3.5240    1.8309   -0.3231 C.ar      1 <0>        -0.1047
     10 C8         -2.3517    1.1569   -0.6021 C.ar      1 <0>        -0.1181
     11 O2         -4.7998    3.2186    1.1282 O.3       1 <0>        -0.2064
     12 C9         -4.7856    4.5571    0.9807 C.2       1 <0>         0.3971
     13 O3         -3.7482    5.1272    0.7058 O.2       1 <0>        -0.3791
     14 N2         -5.9220    5.2645    1.1380 N.am      1 <0>        -0.3118
     15 C10        -5.9327    6.6401    0.8746 C.ar      1 <0>         0.0609
     16 C11        -6.7310    7.4868    1.6323 C.ar      1 <0>        -0.0974
     17 C12        -6.7362    8.8435    1.3744 C.ar      1 <0>        -0.1605
     18 C13        -5.9543    9.3582    0.3537 C.ar      1 <0>         0.1466
     19 C14        -5.1621    8.5149   -0.4066 C.ar      1 <0>        -0.1366
     20 C15        -5.1498    7.1580   -0.1481 C.ar      1 <0>        -0.0496
     21 N3         -4.3275    9.0677   -1.4969 N.pl3     1 <0>         0.5523
     22 O4         -3.6301    8.3263   -2.1658 O.2       1 <0>        -0.3430
     23 O5         -4.3381   10.2641   -1.7252 O.3       1 <0>        -0.3385
     24 F1         -5.9644   10.6851    0.0998 F         1 <0>        -0.0661
     25 H1          1.6461   -1.2546   -1.2024 H         1 <0>         0.0947
     26 H2          1.8474   -0.2029   -2.6242 H         1 <0>         0.1214
     27 H3          2.4553    0.3220   -1.0358 H         1 <0>         0.0986
     28 H4          0.4009    0.1087    0.7325 H         1 <0>         0.2334
     29 H5         -0.5963    1.9578    2.1774 H         1 <0>         0.1363
     30 H6         -2.6828    3.1668    2.6675 H         1 <0>         0.1442
     31 H7         -4.3469    1.7948   -1.0216 H         1 <0>         0.1454
     32 H8         -2.2575    0.5936   -1.5187 H         1 <0>         0.1731
     33 H9         -6.7324    4.8210    1.4337 H         1 <0>         0.2479
     34 H10        -7.3441    7.0852    2.4255 H         1 <0>         0.1494
     35 H11        -7.3535    9.5030    1.9663 H         1 <0>         0.1643
     36 H12        -4.5317    6.5005   -0.7414 H         1 <0>         0.2020
@<TRIPOS>BOND
     1    1    2 1
     2    1   25 1
     3    1   26 1
     4    1   27 1
     5    2    3 2
     6    2    4 am
     7    4    5 1
     8    4   28 1
     9    5   10 ar
    10    5    6 ar
    11    6    7 ar
    12    6   29 1
    13    7    8 ar
    14    7   30 1
    15    8    9 ar
    16    8   11 1
    17    9   10 ar
    18    9   31 1
    19   10   32 1
    20   11   12 1
    21   12   13 2
    22   12   14 am
    23   14   15 1
    24   14   33 1
    25   15   20 ar
    26   15   16 ar
    27   16   17 ar
    28   16   34 1
    29   17   18 ar
    30   17   35 1
    31   18   19 ar
    32   18   24 1
    33   19   20 ar
    34   19   21 1
    35   20   36 1
    36   21   22 2
    37   21   23 1
@<TRIPOS>MOLECULE
ZINC01742873
   42    45     0     0     0
SMALL
USER_CHARGES

@<TRIPOS>ATOM
      1 C1         -0.8490    2.6469   -0.6536 C.3       1 <0>        -0.1371
      2 C2          0.2935    1.6783   -0.4882 C.2       1 <0>        -0.1577
      3 C3          1.5940    1.9903   -0.3696 C.2       1 <0>        -0.0200
      4 N1          2.3370    0.8493   -0.2428 N.pl3     1 <0>        -0.1957
      5 H1          3.3014    0.8202   -0.1431 H         1 <0>         0.2383
      6 C4          1.5105   -0.2534   -0.2776 C.ar      1 <0>        -0.0117
      7 C5          0.1962    0.2178   -0.4327 C.ar      1 <0>        -0.0657
      8 C6         -0.8668   -0.6874   -0.5002 C.ar      1 <0>        -0.0909
      9 C7         -0.6249   -2.0295   -0.4158 C.ar      1 <0>        -0.1363
     10 C8          0.6693   -2.5054   -0.2626 C.ar      1 <0>        -0.1712
     11 C9          1.7382   -1.6288   -0.1928 C.ar      1 <0>         0.0453
     12 N2          3.0391   -2.1176   -0.0379 N.pl3     1 <0>        -0.8104
     13 S1          3.4827   -3.5369   -0.7668 S.o2      1 <0>         2.7658
     14 O1          4.8763   -3.6931   -0.5372 O.2       1 <0>        -0.9109
     15 O2          2.5306   -4.5133   -0.3675 O.2       1 <0>        -0.9087
     16 C10         3.2799   -3.3163   -2.5031 C.ar      1 <0>        -0.7859
     17 C11         4.3352   -2.8334   -3.2638 C.ar      1 <0>         0.0103
     18 C12         4.1974   -2.6535   -4.6242 C.ar      1 <0>        -0.1663
     19 C13         2.9913   -2.9578   -5.2426 C.ar      1 <0>         0.1706
     20 C14         1.9245   -3.4468   -4.4686 C.ar      1 <0>        -0.1716
     21 C15         2.0864   -3.6274   -3.0915 C.ar      1 <0>         0.0415
     22 C16         0.6547   -3.7652   -5.1287 C.2       1 <0>        -0.0299
     23 C17         0.5633   -3.5725   -6.4689 C.2       1 <0>        -0.2512
     24 C18         1.6755   -3.0779   -7.1841 C.2       1 <0>         0.3522
     25 O3          1.5808   -2.9098   -8.3865 O.2       1 <0>        -0.2908
     26 O4          2.8346   -2.7888   -6.5728 O.3       1 <0>        -0.1700
     27 C19         2.1521    3.3902   -0.3758 C.3       1 <0>        -0.1555
     28 H2         -1.2333    2.9265    0.3273 H         1 <0>         0.0817
     29 H3         -0.4975    3.5381   -1.1736 H         1 <0>         0.0753
     30 H4         -1.6427    2.1768   -1.2343 H         1 <0>         0.0820
     31 H5         -1.8777   -0.3265   -0.6191 H         1 <0>         0.1333
     32 H6         -1.4485   -2.7261   -0.4686 H         1 <0>         0.1347
     33 H7          0.8443   -3.5692   -0.1975 H         1 <0>         0.1796
     34 H8          3.6817   -1.6254    0.4966 H         1 <0>         0.2486
     35 H9          5.2739   -2.5957   -2.7856 H         1 <0>         0.1582
     36 H10         5.0251   -2.2774   -5.2072 H         1 <0>         0.1602
     37 H11         1.2702   -4.0071   -2.4947 H         1 <0>         0.1611
     38 H12        -0.1848   -4.1429   -4.5640 H         1 <0>         0.1523
     39 H13        -0.3574   -3.7971   -6.9869 H         1 <0>         0.1735
     40 H14         2.1825    3.7737    0.6440 H         1 <0>         0.0928
     41 H15         3.1606    3.3774   -0.7893 H         1 <0>         0.0795
     42 H16         1.5170    4.0318   -0.9866 H         1 <0>         0.1007
@<TRIPOS>BOND
     1    1    2 1
     2    1   28 1
     3    1   29 1
     4    1   30 1
     5    2    7 1
     6    2    3 2
     7    3    4 1
     8    3   27 1
     9    4    5 1
    10    4    6 1
    11    6   11 ar
    12    6    7 ar
    13    7    8 ar
    14    8    9 ar
    15    8   31 1
    16    9   10 ar
    17    9   32 1
    18   10   11 ar
    19   10   33 1
    20   11   12 1
    21   12   13 1
    22   12   34 1
    23   13   14 2
    24   13   15 2
    25   13   16 1
    26   16   21 ar
    27   16   17 ar
    28   17   18 ar
    29   17   35 1
    30   18   19 ar
    31   18   36 1
    32   19   26 1
    33   19   20 ar
    34   20   21 ar
    35   20   22 1
    36   21   37 1
    37   22   23 2
    38   22   38 1
    39   23   24 1
    40   23   39 1
    41   24   25 2
    42   24   26 1
    43   27   40 1
    44   27   41 1
    45   27   42 1
@<TRIPOS>MOLECULE
ZINC01743784
   47    49     0     0     0
SMALL
USER_CHARGES

@<TRIPOS>ATOM
      1 C1         -2.2861    2.3262    1.0914 C.3       1 <0>        -0.2140
      2 C2         -1.3203    1.7661    0.0452 C.3       1 <0>        -0.0138
      3 O1         -1.8049    2.0916   -1.2843 O.3       1 <0>        -0.2516
      4 C3         -1.0664    1.6690   -2.3224 C.2       1 <0>         0.3012
      5 O2         -0.0487    1.0478   -2.1268 O.2       1 <0>        -0.3420
      6 C4         -1.5065    1.9695   -3.7321 C.3       1 <0>         0.1059
      7 C5         -0.9650    0.9252   -4.6803 C.2       1 <0>        -0.1599
      8 C6         -2.0176    0.3291   -5.2461 C.2       1 <0>         0.0027
      9 C7         -3.2594    0.9215   -4.7251 C.2       1 <0>         0.3231
     10 O3         -4.3823    0.5878   -5.0515 O.2       1 <0>        -0.3142
     11 N1         -2.9692    1.8875   -3.8337 N.am      1 <0>        -0.2725
     12 C8         -3.8931    2.6705   -3.1311 C.ar      1 <0>         0.0808
     13 C9         -3.4482    3.6315   -2.2327 C.ar      1 <0>        -0.1404
     14 C10        -4.3600    4.4069   -1.5441 C.ar      1 <0>        -0.1378
     15 C11        -5.7202    4.2187   -1.7415 C.ar      1 <0>         0.0470
     16 C12        -6.1654    3.2554   -2.6349 C.ar      1 <0>        -0.1318
     17 C13        -5.2548    2.4827   -3.3281 C.ar      1 <0>        -0.1422
     18 O4         -6.6174    4.9792   -1.0592 O.3       1 <0>        -0.2911
     19 N2         -1.9498   -0.7006   -6.1904 N.pl3     1 <0>        -0.2995
     20 C14        -2.5509   -1.9354   -5.9233 C.ar      1 <0>         0.1028
     21 C15        -3.0623   -2.2005   -4.6594 C.ar      1 <0>        -0.1597
     22 C16        -3.6601   -3.4176   -4.3983 C.ar      1 <0>        -0.1108
     23 C17        -3.7406   -4.3792   -5.3947 C.ar      1 <0>         0.0272
     24 C18        -3.2251   -4.1176   -6.6557 C.ar      1 <0>        -0.1137
     25 C19        -2.6316   -2.8991   -6.9202 C.ar      1 <0>        -0.1773
     26 O5         -4.3250   -5.5795   -5.1351 O.3       1 <0>        -0.2890
     27 C20        -1.0248    3.3605   -4.1490 C.3       1 <0>        -0.2198
     28 H1         -2.3510    3.4089    0.9832 H         1 <0>         0.0845
     29 H2         -3.2731    1.8868    0.9468 H         1 <0>         0.0905
     30 H3         -1.9223    2.0819    2.0894 H         1 <0>         0.0911
     31 H4         -1.2554    0.6835    0.1534 H         1 <0>         0.0935
     32 H5         -0.3333    2.2055    0.1898 H         1 <0>         0.0888
     33 H6          0.0756    0.7032   -4.8655 H         1 <0>         0.1846
     34 H7         -2.3894    3.7748   -2.0754 H         1 <0>         0.1485
     35 H8         -4.0141    5.1574   -0.8487 H         1 <0>         0.1392
     36 H9         -7.2245    3.1094   -2.7880 H         1 <0>         0.1459
     37 H10        -5.6016    1.7328   -4.0236 H         1 <0>         0.1820
     38 H11        -6.8889    4.6015   -0.2115 H         1 <0>         0.2235
     39 H12        -1.4861   -0.5585   -7.0304 H         1 <0>         0.2447
     40 H13        -2.9957   -1.4535   -3.8822 H         1 <0>         0.1374
     41 H14        -4.0618   -3.6222   -3.4169 H         1 <0>         0.1410
     42 H15        -3.2883   -4.8670   -7.4308 H         1 <0>         0.1398
     43 H16        -2.2300   -2.6957   -7.9019 H         1 <0>         0.1309
     44 H17        -3.7125   -6.2526   -4.8082 H         1 <0>         0.2194
     45 H18         0.0626    3.4022   -4.0867 H         1 <0>         0.0982
     46 H19        -1.3380    3.5616   -5.1735 H         1 <0>         0.1037
     47 H20        -1.4558    4.1088   -3.4838 H         1 <0>         0.1033
@<TRIPOS>BOND
     1    1    2 1
     2    1   28 1
     3    1   29 1
     4    1   30 1
     5    2    3 1
     6    2   31 1
     7    2   32 1
     8    3    4 1
     9    4    5 2
    10    4    6 1
    11    6   11 1
    12    6    7 1
    13    6   27 1
    14    7    8 2
    15    7   33 1
    16    8    9 1
    17    8   19 1
    18    9   10 2
    19    9   11 am
    20   11   12 1
    21   12   17 ar
    22   12   13 ar
    23   13   14 ar
    24   13   34 1
    25   14   15 ar
    26   14   35 1
    27   15   16 ar
    28   15   18 1
    29   16   17 ar
    30   16   36 1
    31   17   37 1
    32   18   38 1
    33   19   20 1
    34   19   39 1
    35   20   25 ar
    36   20   21 ar
    37   21   22 ar
    38   21   40 1
    39   22   23 ar
    40   22   41 1
    41   23   24 ar
    42   23   26 1
    43   24   25 ar
    44   24   42 1
    45   25   43 1
    46   26   44 1
    47   27   45 1
    48   27   46 1
    49   27   47 1
@<TRIPOS>MOLECULE
ZINC01750506
   42    44     0     0     0
SMALL
USER_CHARGES

@<TRIPOS>ATOM
      1 C1          4.8092    4.4525    0.0439 C.3       1 <0>        -0.2169
      2 C2          3.5754    3.6784   -0.4248 C.3       1 <0>         0.0892
      3 C3          3.7455    2.1963   -0.0944 C.3       1 <0>        -0.1345
      4 C4          2.4550    1.4481   -0.2935 C.ar      1 <0>        -0.0398
      5 C5          2.4899    0.0827   -0.5109 C.ar      1 <0>        -0.1399
      6 C6          1.3158   -0.6253   -0.6869 C.ar      1 <0>        -0.1032
      7 C7          0.0932    0.0216   -0.6454 C.ar      1 <0>        -0.1440
      8 C8          0.0416    1.3839   -0.4306 C.ar      1 <0>        -0.0704
      9 C9          1.2243    2.1018   -0.2575 C.ar      1 <0>        -0.0638
     10 C10         1.1768    3.5692   -0.0469 C.2       1 <0>         0.2183
     11 N1          0.0581    4.2461   -0.1521 N.2       1 <0>        -0.2497
     12 C11         0.0727    5.6107   -0.0560 C.ar      1 <0>         0.0857
     13 C12        -0.7713    6.2595    0.8483 C.ar      1 <0>        -0.1602
     14 C13        -0.7472    7.6353    0.9439 C.ar      1 <0>        -0.0165
     15 C14         0.1022    8.3733    0.1384 C.ar      1 <0>        -0.7873
     16 C15         0.9369    7.7375   -0.7637 C.ar      1 <0>        -0.0172
     17 C16         0.9275    6.3620   -0.8659 C.ar      1 <0>        -0.1955
     18 S1          0.1214   10.1308    0.2626 S.o2      1 <0>         2.7642
     19 O1         -0.3556   10.4514    1.5621 O.2       1 <0>        -0.9218
     20 O2          1.3921   10.5574   -0.2093 O.2       1 <0>        -0.9237
     21 N2         -1.0002   10.7096   -0.8094 N.pl3     1 <0>        -0.9312
     22 N3          2.3803    4.1892    0.2683 N.pl3     1 <0>        -0.4153
     23 C17         3.4065    3.8502   -1.9357 C.3       1 <0>        -0.2251
     24 H1          5.6939    4.0672   -0.4630 H         1 <0>         0.0893
     25 H2          4.6864    5.5094   -0.1924 H         1 <0>         0.0885
     26 H3          4.9261    4.3321    1.1209 H         1 <0>         0.0834
     27 H4          4.0617    2.0949    0.9438 H         1 <0>         0.1046
     28 H5          4.5102    1.7702   -0.7439 H         1 <0>         0.0991
     29 H6          3.4386   -0.4325   -0.5437 H         1 <0>         0.1336
     30 H7          1.3529   -1.6910   -0.8584 H         1 <0>         0.1322
     31 H8         -0.8199   -0.5391   -0.7806 H         1 <0>         0.1364
     32 H9         -0.9107    1.8925   -0.4013 H         1 <0>         0.1588
     33 H10        -1.4382    5.6851    1.4741 H         1 <0>         0.1486
     34 H11        -1.3960    8.1381    1.6458 H         1 <0>         0.1522
     35 H12         1.5970    8.3197   -1.3895 H         1 <0>         0.1492
     36 H13         1.5792    5.8671   -1.5707 H         1 <0>         0.1448
     37 H14        -1.5144   10.0929   -1.3537 H         1 <0>         0.2305
     38 H15        -1.1431   11.6654   -0.8931 H         1 <0>         0.2418
     39 H16         2.4303    4.9165    0.9082 H         1 <0>         0.2474
     40 H17         2.5252    3.3013   -2.2675 H         1 <0>         0.0914
     41 H18         3.2853    4.9079   -2.1698 H         1 <0>         0.0830
     42 H19         4.2886    3.4639   -2.4462 H         1 <0>         0.0840
@<TRIPOS>BOND
     1    1    2 1
     2    1   24 1
     3    1   25 1
     4    1   26 1
     5    2   22 1
     6    2    3 1
     7    2   23 1
     8    3    4 1
     9    3   27 1
    10    3   28 1
    11    4    9 ar
    12    4    5 ar
    13    5    6 ar
    14    5   29 1
    15    6    7 ar
    16    6   30 1
    17    7    8 ar
    18    7   31 1
    19    8    9 ar
    20    8   32 1
    21    9   10 1
    22   10   11 2
    23   10   22 1
    24   11   12 1
    25   12   17 ar
    26   12   13 ar
    27   13   14 ar
    28   13   33 1
    29   14   15 ar
    30   14   34 1
    31   15   16 ar
    32   15   18 1
    33   16   17 ar
    34   16   35 1
    35   17   36 1
    36   18   19 2
    37   18   20 2
    38   18   21 1
    39   21   37 1
    40   21   38 1
    41   22   39 1
    42   23   40 1
    43   23   41 1
    44   23   42 1
@<TRIPOS>MOLECULE
ZINC01751661
   38    39     0     0     0
SMALL
USER_CHARGES

@<TRIPOS>ATOM
      1 C1          0.0589    1.5033    0.0037 C.3       1 <0>        -0.1467
      2 C2          0.0558   -0.0036   -0.0034 C.ar      1 <0>         0.0935
      3 N1          0.6050   -0.6388   -1.0185 N.ar      1 <0>        -0.2387
      4 C3          0.6300   -1.9633   -1.0638 C.ar      1 <0>         0.0308
      5 C4          0.0568   -2.6848   -0.0275 C.ar      1 <0>        -0.1350
      6 C5         -0.5232   -1.9746    1.0329 C.ar      1 <0>         0.1922
      7 N2         -0.5010   -0.6466    1.0037 N.ar      1 <0>        -0.2719
      8 N3         -1.1098   -2.6471    2.0950 N.pl3     1 <0>        -0.3943
      9 N4          0.0568   -4.0866   -0.0402 N.am      1 <0>        -0.3117
     10 C6         -0.0470   -4.7499   -1.2088 C.2       1 <0>         0.2960
     11 O1         -0.0650   -4.1363   -2.2550 O.2       1 <0>        -0.3391
     12 C7         -0.1406   -6.2540   -1.2158 C.3       1 <0>         0.0607
     13 H1         -0.9709   -6.5693   -0.5839 H         1 <0>         0.1309
     14 C8          1.1434   -6.8397   -0.6874 C.ar      1 <0>        -0.1000
     15 C9          2.2469   -6.9443   -1.5134 C.ar      1 <0>        -0.0884
     16 C10         3.4260   -7.4775   -1.0274 C.ar      1 <0>        -0.1273
     17 C11         3.4990   -7.9145    0.2821 C.ar      1 <0>        -0.1139
     18 C12         2.3939   -7.8147    1.1066 C.ar      1 <0>        -0.1274
     19 C13         1.2161   -7.2775    0.6218 C.ar      1 <0>        -0.1229
     20 O2         -0.3619   -6.7189   -2.5735 O.3       1 <0>        -0.2340
     21 C14        -1.6367   -6.8412   -2.9755 C.2       1 <0>         0.3100
     22 O3         -2.5378   -6.5688   -2.2181 O.2       1 <0>        -0.3628
     23 C15        -1.9441   -7.3182   -4.3716 C.3       1 <0>        -0.2044
     24 H2          0.9600    1.8625    0.5006 H         1 <0>         0.0966
     25 H3          0.0382    1.8715   -1.0221 H         1 <0>         0.1029
     26 H4         -0.8195    1.8659    0.5376 H         1 <0>         0.0980
     27 H5          1.0869   -2.4738   -1.8988 H         1 <0>         0.1981
     28 H6         -1.5084   -2.1475    2.8246 H         1 <0>         0.2372
     29 H7         -1.1214   -3.6169    2.1079 H         1 <0>         0.2237
     30 H8          0.1315   -4.5792    0.7921 H         1 <0>         0.2277
     31 H9          2.1887   -6.6064   -2.5375 H         1 <0>         0.1523
     32 H10         4.2894   -7.5552   -1.6715 H         1 <0>         0.1370
     33 H11         4.4194   -8.3336    0.6610 H         1 <0>         0.1341
     34 H12         2.4509   -8.1561    2.1296 H         1 <0>         0.1342
     35 H13         0.3528   -7.1995    1.2660 H         1 <0>         0.1257
     36 H14        -2.0305   -8.4047   -4.3735 H         1 <0>         0.1099
     37 H15        -2.8832   -6.8784   -4.7073 H         1 <0>         0.1207
     38 H16        -1.1408   -7.0164   -5.0437 H         1 <0>         0.1065
@<TRIPOS>BOND
     1    1    2 1
     2    1   24 1
     3    1   25 1
     4    1   26 1
     5    2    7 ar
     6    2    3 ar
     7    3    4 ar
     8    4    5 ar
     9    4   27 1
    10    5    6 ar
    11    5    9 1
    12    6    7 ar
    13    6    8 1
    14    8   28 1
    15    8   29 1
    16    9   10 am
    17    9   30 1
    18   10   11 2
    19   10   12 1
    20   12   13 1
    21   12   14 1
    22   12   20 1
    23   14   19 ar
    24   14   15 ar
    25   15   16 ar
    26   15   31 1
    27   16   17 ar
    28   16   32 1
    29   17   18 ar
    30   17   33 1
    31   18   19 ar
    32   18   34 1
    33   19   35 1
    34   20   21 1
    35   21   22 2
    36   21   23 1
    37   23   36 1
    38   23   37 1
    39   23   38 1
@<TRIPOS>MOLECULE
ZINC01752717
   39    40     0     0     0
SMALL
USER_CHARGES

@<TRIPOS>ATOM
      1 C1         -4.3754   10.5877   -1.7356 C.3       1 <0>        -0.2538
      2 C2         -4.3539    9.1053   -1.4650 C.2       1 <0>         0.2637
      3 O1         -3.6542    8.3768   -2.1358 O.2       1 <0>        -0.2781
      4 C3         -5.1821    8.5419   -0.3867 C.ar      1 <0>        -0.1392
      5 C4         -5.9908    9.3797    0.3886 C.ar      1 <0>        -0.1091
      6 C5         -6.7658    8.8480    1.3978 C.ar      1 <0>        -0.1248
      7 C6         -6.7513    7.4871    1.6440 C.ar      1 <0>        -0.1340
      8 C7         -5.9477    6.6459    0.8835 C.ar      1 <0>         0.0641
      9 C8         -5.1644    7.1678   -0.1334 C.ar      1 <0>        -0.0667
     10 N1         -5.9340    5.2701    1.1413 N.am      1 <0>        -0.3120
     11 C9         -4.7953    4.5664    0.9844 C.2       1 <0>         0.3956
     12 O2         -3.7586    5.1403    0.7148 O.2       1 <0>        -0.3793
     13 O3         -4.8063    3.2273    1.1264 O.3       1 <0>        -0.2127
     14 C10        -3.6489    2.5678    0.8529 C.ar      1 <0>         0.0537
     15 C11        -3.5227    1.8489   -0.3268 C.ar      1 <0>        -0.1068
     16 C12        -2.3474    1.1799   -0.6055 C.ar      1 <0>        -0.1182
     17 C13        -1.2919    1.2264    0.2955 C.ar      1 <0>         0.0665
     18 C14        -1.4212    1.9412    1.4790 C.ar      1 <0>        -0.1521
     19 C15        -2.5948    2.6148    1.7536 C.ar      1 <0>        -0.1029
     20 N2         -0.0994    0.5480    0.0134 N.am      1 <0>        -0.3311
     21 C16         0.3439    0.4641   -1.2566 C.2       1 <0>         0.3011
     22 O4         -0.3281    0.9069   -2.1640 O.2       1 <0>        -0.3498
     23 C17         1.6745   -0.1801   -1.5492 C.3       1 <0>        -0.2408
     24 H1         -5.0006   11.0343   -1.0956 H         1 <0>         0.0799
     25 H2         -3.3725   10.9950   -1.6077 H         1 <0>         0.1088
     26 H3         -4.7125   10.7658   -2.7567 H         1 <0>         0.1069
     27 H4         -6.0084   10.4424    0.1967 H         1 <0>         0.1365
     28 H5         -7.3896    9.4962    1.9954 H         1 <0>         0.1356
     29 H6         -7.3641    7.0768    2.4330 H         1 <0>         0.1332
     30 H7         -4.5422    6.5150   -0.7277 H         1 <0>         0.1841
     31 H8         -6.7441    4.8232    1.4328 H         1 <0>         0.2421
     32 H9         -4.3437    1.8128   -1.0275 H         1 <0>         0.1452
     33 H10        -2.2490    0.6208   -1.5243 H         1 <0>         0.1712
     34 H11        -0.6022    1.9742    2.1823 H         1 <0>         0.1343
     35 H12        -2.6936    3.1750    2.6716 H         1 <0>         0.1444
     36 H13         0.4054    0.1353    0.7316 H         1 <0>         0.2323
     37 H14         1.6607   -1.2146   -1.2062 H         1 <0>         0.0940
     38 H15         1.8618   -0.1557   -2.6227 H         1 <0>         0.1203
     39 H16         2.4636    0.3642   -1.0303 H         1 <0>         0.0978
@<TRIPOS>BOND
     1    1    2 1
     2    1   24 1
     3    1   25 1
     4    1   26 1
     5    2    3 2
     6    2    4 1
     7    4    9 ar
     8    4    5 ar
     9    5    6 ar
    10    5   27 1
    11    6    7 ar
    12    6   28 1
    13    7    8 ar
    14    7   29 1
    15    8    9 ar
    16    8   10 1
    17    9   30 1
    18   10   11 am
    19   10   31 1
    20   11   12 2
    21   11   13 1
    22   13   14 1
    23   14   19 ar
    24   14   15 ar
    25   15   16 ar
    26   15   32 1
    27   16   17 ar
    28   16   33 1
    29   17   18 ar
    30   17   20 1
    31   18   19 ar
    32   18   34 1
    33   19   35 1
    34   20   21 am
    35   20   36 1
    36   21   22 2
    37   21   23 1
    38   23   37 1
    39   23   38 1
    40   23   39 1
@<TRIPOS>MOLECULE
ZINC01757600
   43    45     0     0     0
SMALL
USER_CHARGES

@<TRIPOS>ATOM
      1 C1          2.2468   -5.0674   -2.2897 C.3       1 <0>        -0.1625
      2 C2          1.0965   -4.2645   -1.7391 C.2       1 <0>         0.1488
      3 C3          1.3372   -3.0411   -1.2463 C.2       1 <0>        -0.2254
      4 C4          0.2223   -2.2043   -0.6893 C.3       1 <0>         0.0881
      5 C5          0.3020   -2.1527    0.8158 C.ar      1 <0>        -0.1337
      6 C6          0.2343   -3.1185    1.7948 C.ar      1 <0>        -0.0646
      7 C7          0.3425   -2.7606    3.1271 C.ar      1 <0>        -0.1608
      8 C8          0.5184   -1.4325    3.4706 C.ar      1 <0>        -0.0904
      9 C9          0.5860   -0.4624    2.4923 C.ar      1 <0>        -0.1593
     10 C10         0.4789   -0.8147    1.1484 C.ar      1 <0>         0.0861
     11 N1          0.5169   -0.0314   -0.0062 N.am      1 <0>        -0.2625
     12 C11         0.3694   -0.7654   -1.1236 C.2       1 <0>         0.3428
     13 O1          0.3591   -0.3508   -2.2633 O.2       1 <0>        -0.3185
     14 C12         0.6911    1.4232   -0.0012 C.3       1 <0>        -0.0569
     15 C13        -1.1089   -2.7447   -1.1265 C.2       1 <0>        -0.2401
     16 C14        -1.2078   -3.9992   -1.6332 C.2       1 <0>         0.2638
     17 O2         -0.1335   -4.7976   -1.7579 O.3       1 <0>        -0.1367
     18 N2         -2.4369   -4.4655   -2.0285 N.pl3     1 <0>        -0.3808
     19 C15        -2.2812   -1.9309   -1.0073 C.1       1 <0>        -0.0628
     20 N3         -3.2111   -1.2854   -0.9127 N.1       1 <0>        -0.0629
     21 C16         2.6590   -2.5320   -1.2518 C.2       1 <0>         0.3752
     22 O3          3.5826   -3.2411   -1.6044 O.2       1 <0>        -0.3848
     23 O4          2.8938   -1.2606   -0.8660 O.3       1 <0>        -0.2489
     24 C17         4.2508   -0.8135   -0.8964 C.3       1 <0>         0.0271
     25 C18         4.3179    0.6198   -0.4357 C.2       1 <0>        -0.1694
     26 C19         5.2409    0.9914    0.4163 C.2       1 <0>        -0.2062
     27 H1          2.9484   -5.2947   -1.4870 H         1 <0>         0.1309
     28 H2          1.8698   -5.9967   -2.7167 H         1 <0>         0.0838
     29 H3          2.7544   -4.4915   -3.0636 H         1 <0>         0.1346
     30 H4          0.0972   -4.1547    1.5230 H         1 <0>         0.1309
     31 H5          0.2900   -3.5165    3.8967 H         1 <0>         0.1331
     32 H6          0.6026   -1.1533    4.5105 H         1 <0>         0.1327
     33 H7          0.7239    0.5725    2.7686 H         1 <0>         0.1318
     34 H8          1.7535    1.6621   -0.0492 H         1 <0>         0.0779
     35 H9          0.1827    1.8529   -0.8644 H         1 <0>         0.1054
     36 H10         0.2665    1.8369    0.9135 H         1 <0>         0.0835
     37 H11        -2.5220   -5.3607   -2.3923 H         1 <0>         0.2314
     38 H12        -3.2204   -3.8999   -1.9441 H         1 <0>         0.2614
     39 H13         4.8534   -1.4363   -0.2352 H         1 <0>         0.0913
     40 H14         4.6347   -0.8865   -1.9139 H         1 <0>         0.0977
     41 H15         3.6049    1.3406   -0.8080 H         1 <0>         0.1356
     42 H16         5.9538    0.2706    0.7886 H         1 <0>         0.1148
     43 H17         5.2890    2.0186    0.7465 H         1 <0>         0.1184
@<TRIPOS>BOND
     1    1    2 1
     2    1   27 1
     3    1   28 1
     4    1   29 1
     5    2   17 1
     6    2    3 2
     7    3    4 1
     8    3   21 1
     9    4   12 1
    10    4    5 1
    11    4   15 1
    12    5   10 ar
    13    5    6 ar
    14    6    7 ar
    15    6   30 1
    16    7    8 ar
    17    7   31 1
    18    8    9 ar
    19    8   32 1
    20    9   10 ar
    21    9   33 1
    22   10   11 1
    23   11   12 am
    24   11   14 1
    25   12   13 2
    26   14   34 1
    27   14   35 1
    28   14   36 1
    29   15   16 2
    30   15   19 1
    31   16   17 1
    32   16   18 1
    33   18   37 1
    34   18   38 1
    35   19   20 3
    36   21   22 2
    37   21   23 1
    38   23   24 1
    39   24   25 1
    40   24   39 1
    41   24   40 1
    42   25   26 2
    43   25   41 1
    44   26   42 1
    45   26   43 1
@<TRIPOS>MOLECULE
ZINC01757601
   43    45     0     0     0
SMALL
USER_CHARGES

@<TRIPOS>ATOM
      1 C1         -3.4962    6.4618   -2.3655 C.3       1 <0>        -0.1623
      2 C2         -3.1695    5.6983   -1.1080 C.2       1 <0>         0.1492
      3 C3         -2.9962    4.3709   -1.1820 C.2       1 <0>        -0.2268
      4 C4         -2.6714    3.5695    0.0451 C.3       1 <0>         0.0880
      5 C5         -1.2245    3.1443    0.0299 C.ar      1 <0>        -0.1327
      6 C6         -0.0389    3.8443    0.0227 C.ar      1 <0>        -0.0647
      7 C7          1.1656    3.1631    0.0080 C.ar      1 <0>        -0.1610
      8 C8          1.1735    1.7801    0.0004 C.ar      1 <0>        -0.0904
      9 C9         -0.0126    1.0758    0.0080 C.ar      1 <0>        -0.1615
     10 C10        -1.2295    1.7544    0.0174 C.ar      1 <0>         0.0864
     11 N1         -2.5410    1.2765    0.0217 N.am      1 <0>        -0.2624
     12 C11        -3.4448    2.2725    0.0311 C.2       1 <0>         0.3421
     13 O1         -4.6517    2.1518    0.0371 O.2       1 <0>        -0.3175
     14 C12        -2.8923   -0.1457    0.0157 C.3       1 <0>        -0.0557
     15 C13        -2.9727    4.3620    1.2847 C.2       1 <0>        -0.2388
     16 C14        -3.1510    5.7050    1.2139 C.2       1 <0>         0.2637
     17 O2         -3.0621    6.3686    0.0483 O.3       1 <0>        -0.1370
     18 N2         -3.4299    6.4041    2.3619 N.pl3     1 <0>        -0.3808
     19 C15        -3.0728    3.6962    2.5485 C.1       1 <0>        -0.0628
     20 N3         -3.1522    3.1680    3.5511 N.1       1 <0>        -0.0626
     21 C16        -3.1205    3.7173   -2.4325 C.2       1 <0>         0.3751
     22 O3         -3.3835    4.3601   -3.4314 O.2       1 <0>        -0.3847
     23 O4         -2.9473    2.3819   -2.5159 O.3       1 <0>        -0.2494
     24 C17        -3.0874    1.7890   -3.8085 C.3       1 <0>         0.0270
     25 C18        -2.8609    0.3026   -3.7066 C.2       1 <0>        -0.1708
     26 C19        -3.6715   -0.5268   -4.3158 C.2       1 <0>        -0.2035
     27 H1         -3.6040    7.5206   -2.1301 H         1 <0>         0.0835
     28 H2         -2.6920    6.3307   -3.0895 H         1 <0>         0.1310
     29 H3         -4.4289    6.0865   -2.7866 H         1 <0>         0.1349
     30 H4         -0.0489    4.9243    0.0287 H         1 <0>         0.1309
     31 H5          2.0969    3.7099    0.0021 H         1 <0>         0.1332
     32 H6          2.1135    1.2485   -0.0111 H         1 <0>         0.1327
     33 H7          0.0021   -0.0041    0.0020 H         1 <0>         0.1312
     34 H8         -2.9741   -0.5041    1.0419 H         1 <0>         0.0816
     35 H9         -3.8462   -0.2822   -0.4939 H         1 <0>         0.1062
     36 H10        -2.1182   -0.7090   -0.5053 H         1 <0>         0.0797
     37 H11        -3.4972    5.9375    3.2097 H         1 <0>         0.2614
     38 H12        -3.5596    7.3647    2.3254 H         1 <0>         0.2314
     39 H13        -4.0914    1.9783   -4.1882 H         1 <0>         0.0943
     40 H14        -2.3541    2.2225   -4.4885 H         1 <0>         0.0948
     41 H15        -2.0303   -0.0789   -3.1313 H         1 <0>         0.1327
     42 H16        -3.5092   -1.5920   -4.2428 H         1 <0>         0.1182
     43 H17        -4.5022   -0.1453   -4.8911 H         1 <0>         0.1162
@<TRIPOS>BOND
     1    1    2 1
     2    1   27 1
     3    1   28 1
     4    1   29 1
     5    2   17 1
     6    2    3 2
     7    3    4 1
     8    3   21 1
     9    4   12 1
    10    4    5 1
    11    4   15 1
    12    5   10 ar
    13    5    6 ar
    14    6    7 ar
    15    6   30 1
    16    7    8 ar
    17    7   31 1
    18    8    9 ar
    19    8   32 1
    20    9   10 ar
    21    9   33 1
    22   10   11 1
    23   11   12 am
    24   11   14 1
    25   12   13 2
    26   14   34 1
    27   14   35 1
    28   14   36 1
    29   15   16 2
    30   15   19 1
    31   16   17 1
    32   16   18 1
    33   18   37 1
    34   18   38 1
    35   19   20 3
    36   21   22 2
    37   21   23 1
    38   23   24 1
    39   24   25 1
    40   24   39 1
    41   24   40 1
    42   25   26 2
    43   25   41 1
    44   26   42 1
    45   26   43 1
@<TRIPOS>MOLECULE
ZINC01759701
   47    49     0     0     0
SMALL
USER_CHARGES

@<TRIPOS>ATOM
      1 C1         -3.4850    8.5634    7.3632 C.3       1 <0>        -0.2099
      2 C2         -2.8255    8.1776    6.0376 C.3       1 <0>        -0.1622
      3 C3         -3.4681    8.9712    4.8982 C.3       1 <0>        -0.1695
      4 C4         -2.8086    8.5854    3.5726 C.3       1 <0>        -0.0076
      5 N1         -3.4240    9.3453    2.4817 N.pl3     1 <0>        -0.8849
      6 S1         -2.6925    9.4025    0.9971 S.o2      1 <0>         2.7666
      7 O1         -1.3337    9.7485    1.2269 O.2       1 <0>        -0.9132
      8 O2         -3.5421   10.1697    0.1551 O.2       1 <0>        -0.9155
      9 C5         -2.6926    7.7626    0.3528 C.ar      1 <0>        -0.7634
     10 C6         -1.4974    7.1063    0.1402 C.ar      1 <0>         0.0088
     11 C7         -1.4990    5.8084   -0.3703 C.ar      1 <0>        -0.0541
     12 C8         -2.7104    5.1836   -0.6679 C.ar      1 <0>        -0.0616
     13 C9         -3.8987    5.8483   -0.4464 C.ar      1 <0>        -0.1556
     14 C10        -3.8906    7.1357    0.0606 C.ar      1 <0>         0.0385
     15 C11        -5.1922    7.8582    0.2952 C.3       1 <0>        -0.2010
     16 C12        -0.2200    5.0986   -0.6012 C.2       1 <0>        -0.0284
     17 C13        -0.0082    4.3652   -1.7949 C.ar      1 <0>        -0.0385
     18 C14        -0.9711    4.2689   -2.8037 C.ar      1 <0>        -0.1317
     19 C15        -0.6934    3.5483   -3.9284 C.ar      1 <0>        -0.0917
     20 C16         0.5293    2.8994   -4.0813 C.ar      1 <0>        -0.1371
     21 C17         1.4900    2.9733   -3.1162 C.ar      1 <0>        -0.0478
     22 C18         1.2391    3.7089   -1.9524 C.ar      1 <0>        -0.1016
     23 C19         2.1829    3.8323   -0.9088 C.2       1 <0>         0.2507
     24 N2          1.8691    4.5443    0.1574 N.am      1 <0>        -0.1583
     25 N3          0.7437    5.1384    0.3027 N.2       1 <0>        -0.0387
     26 O3          3.3924    3.2280   -1.0006 O.2       1 <0>        -0.4224
     27 H1         -3.0271    7.9981    8.1748 H         1 <0>         0.0767
     28 H2         -3.3472    9.6300    7.5405 H         1 <0>         0.0755
     29 H3         -4.5503    8.3371    7.3184 H         1 <0>         0.0730
     30 H4         -2.9631    7.1110    5.8602 H         1 <0>         0.0816
     31 H5         -1.7602    8.4040    6.0823 H         1 <0>         0.0860
     32 H6         -3.3305   10.0379    5.0756 H         1 <0>         0.0931
     33 H7         -4.5334    8.7449    4.8535 H         1 <0>         0.0839
     34 H8         -2.9464    7.5188    3.3953 H         1 <0>         0.0762
     35 H9         -1.7433    8.8118    3.6173 H         1 <0>         0.1035
     36 H10        -4.2599    9.8149    2.6290 H         1 <0>         0.2445
     37 H11        -0.5626    7.5965    0.3690 H         1 <0>         0.1696
     38 H12        -2.7179    4.1803   -1.0677 H         1 <0>         0.1433
     39 H13        -4.8373    5.3645   -0.6733 H         1 <0>         0.1406
     40 H14        -5.4183    8.4881   -0.5652 H         1 <0>         0.1237
     41 H15        -5.9918    7.1305    0.4329 H         1 <0>         0.0905
     42 H16        -5.1077    8.4785    1.1875 H         1 <0>         0.0833
     43 H17        -1.9248    4.7641   -2.6957 H         1 <0>         0.1487
     44 H18        -1.4347    3.4765   -4.7103 H         1 <0>         0.1361
     45 H19         0.7214    2.3324   -4.9802 H         1 <0>         0.1399
     46 H20         2.4355    2.4685   -3.2486 H         1 <0>         0.1675
     47 H21         2.5452    4.6241    0.8899 H         1 <0>         0.2926
@<TRIPOS>BOND
     1    1    2 1
     2    1   27 1
     3    1   28 1
     4    1   29 1
     5    2    3 1
     6    2   30 1
     7    2   31 1
     8    3    4 1
     9    3   32 1
    10    3   33 1
    11    4    5 1
    12    4   34 1
    13    4   35 1
    14    5    6 1
    15    5   36 1
    16    6    7 2
    17    6    8 2
    18    6    9 1
    19    9   14 ar
    20    9   10 ar
    21   10   11 ar
    22   10   37 1
    23   11   12 ar
    24   11   16 1
    25   12   13 ar
    26   12   38 1
    27   13   14 ar
    28   13   39 1
    29   14   15 1
    30   15   40 1
    31   15   41 1
    32   15   42 1
    33   16   17 1
    34   16   25 2
    35   17   18 ar
    36   17   22 ar
    37   18   19 ar
    38   18   43 1
    39   19   20 ar
    40   19   44 1
    41   20   21 ar
    42   20   45 1
    43   21   22 ar
    44   21   46 1
    45   22   23 1
    46   23   24 am
    47   23   26 2
    48   24   47 1
    49   24   25 1
@<TRIPOS>MOLECULE
ZINC01762580
   44    47     0     0     0
SMALL
USER_CHARGES

@<TRIPOS>ATOM
      1 C1          6.7870    5.8777   -7.1771 C.3       1 <0>        -0.1429
      2 C2          6.8940    5.5873   -5.7022 C.2       1 <0>        -0.2460
      3 C3          6.4916    4.3968   -5.2083 C.2       1 <0>         0.0266
      4 N1          6.5962    4.1495   -3.8666 N.am      1 <0>        -0.2559
      5 C4          7.0914    5.0833   -3.0342 C.2       1 <0>         0.3968
      6 O1          7.1712    4.8443   -1.8448 O.2       1 <0>        -0.3532
      7 N2          7.5047    6.2764   -3.5004 N.am      1 <0>        -0.3411
      8 H1          7.8774    6.9560   -2.8685 H         1 <0>         0.2778
      9 C5          7.4182    6.5590   -4.8160 C.2       1 <0>         0.3465
     10 O2          7.7873    7.6401   -5.2379 O.2       1 <0>        -0.3430
     11 C6          6.1592    2.8580   -3.3306 C.3       1 <0>         0.1739
     12 H2          5.6660    2.2731   -4.1070 H         1 <0>         0.1082
     13 C7          7.3627    2.0801   -2.7539 C.3       1 <0>        -0.2418
     14 C8          6.7899    1.3746   -1.5044 C.3       1 <0>         0.0217
     15 H3          6.8681    0.2920   -1.6049 H         1 <0>         0.0818
     16 C9          5.3080    1.8098   -1.4739 C.3       1 <0>         0.0134
     17 H4          4.6829    1.0623   -1.9624 H         1 <0>         0.1043
     18 O3          5.2736    3.0539   -2.2066 O.3       1 <0>        -0.2388
     19 C10         4.8466    2.0283   -0.0315 C.3       1 <0>         0.0058
     20 N3          3.4117    2.3232   -0.0172 N.pl3     1 <0>        -0.1662
     21 C11         2.8672    3.5785   -0.0055 C.2       1 <0>        -0.0486
     22 C12         1.5275    3.4963    0.0064 C.2       1 <0>        -0.2228
     23 C13         1.1857    2.0718    0.0019 C.ar      1 <0>        -0.0884
     24 C14         2.4100    1.3784   -0.0131 C.ar      1 <0>         0.0018
     25 C15         2.4052   -0.0124   -0.0205 C.ar      1 <0>        -0.1478
     26 C16         1.2070   -0.6927   -0.0132 C.ar      1 <0>        -0.1124
     27 C17         0.0021   -0.0041    0.0020 C.ar      1 <0>        -0.1600
     28 C18        -0.0165    1.3624    0.0095 C.ar      1 <0>        -0.0781
     29 O4          7.4660    1.8168   -0.3256 O.3       1 <0>        -0.3314
     30 H5          5.8166    6.3263   -7.3896 H         1 <0>         0.0901
     31 H6          7.5783    6.5677   -7.4699 H         1 <0>         0.1084
     32 H7          6.8887    4.9489   -7.7385 H         1 <0>         0.0722
     33 H8          6.0894    3.6432   -5.8692 H         1 <0>         0.1629
     34 H9          8.1616    2.7661   -2.4726 H         1 <0>         0.1343
     35 H10         7.7241    1.3465   -3.4747 H         1 <0>         0.0946
     36 H11         5.3939    2.8652    0.4022 H         1 <0>         0.1406
     37 H12         5.0383    1.1275    0.5516 H         1 <0>         0.1131
     38 H13         3.4319    4.4991   -0.0054 H         1 <0>         0.1738
     39 H14         0.8332    4.3235    0.0172 H         1 <0>         0.1535
     40 H15         3.3376   -0.5573   -0.0324 H         1 <0>         0.1180
     41 H16         1.2054   -1.7727   -0.0190 H         1 <0>         0.1258
     42 H17        -0.9283   -0.5525    0.0076 H         1 <0>         0.1261
     43 H18        -0.9579    1.8916    0.0169 H         1 <0>         0.1288
     44 H19         8.4005    1.5706   -0.2924 H         1 <0>         0.2177
@<TRIPOS>BOND
     1    1    2 1
     2    1   30 1
     3    1   31 1
     4    1   32 1
     5    2    9 1
     6    2    3 2
     7    3    4 1
     8    3   33 1
     9    4    5 am
    10    4   11 1
    11    5    6 2
    12    5    7 am
    13    7    8 1
    14    7    9 am
    15    9   10 2
    16   11   12 1
    17   11   18 1
    18   11   13 1
    19   13   14 1
    20   13   34 1
    21   13   35 1
    22   14   15 1
    23   14   16 1
    24   14   29 1
    25   16   17 1
    26   16   18 1
    27   16   19 1
    28   19   20 1
    29   19   36 1
    30   19   37 1
    31   20   24 1
    32   20   21 1
    33   21   22 2
    34   21   38 1
    35   22   23 1
    36   22   39 1
    37   23   28 ar
    38   23   24 ar
    39   24   25 ar
    40   25   26 ar
    41   25   40 1
    42   26   27 ar
    43   26   41 1
    44   27   28 ar
    45   27   42 1
    46   28   43 1
    47   29   44 1
@<TRIPOS>MOLECULE
ZINC01768737
   40    41     0     0     0
SMALL
USER_CHARGES

@<TRIPOS>ATOM
      1 C1          6.4809   -1.8621   -8.5251 C.3       1 <0>        -0.0493
      2 N1          6.4304   -1.3472   -7.1545 N.pl3     1 <0>        -0.3368
      3 C2          7.4663   -0.4268   -6.6791 C.3       1 <0>        -0.0540
      4 C3          5.3953   -1.7337   -6.3014 C.ar      1 <0>         0.1408
      5 C4          4.3494   -2.5105   -6.7876 C.ar      1 <0>        -0.2167
      6 C5          3.3257   -2.8935   -5.9486 C.ar      1 <0>        -0.0571
      7 C6          3.3395   -2.5004   -4.6078 C.ar      1 <0>        -0.1160
      8 C7          4.3891   -1.7150   -4.1243 C.ar      1 <0>        -0.0392
      9 C8          5.4123   -1.3406   -4.9677 C.ar      1 <0>        -0.2210
     10 C9          2.2457   -2.9083   -3.7068 C.2       1 <0>        -0.0781
     11 N2          2.2600   -2.5424   -2.4620 N.2       1 <0>        -0.0237
     12 N3          1.2209   -2.9300   -1.6060 N.pl3     1 <0>        -0.8106
     13 S1          1.2392   -2.4630   -0.0173 S.o2      1 <0>         2.7875
     14 O1          2.4924   -2.8733    0.5123 O.2       1 <0>        -0.9030
     15 O2          0.0019   -2.8806    0.5430 O.2       1 <0>        -0.9216
     16 C10         1.2343   -0.7012    0.0079 C.ar      1 <0>        -0.8091
     17 C11         0.0340   -0.0149    0.0326 C.ar      1 <0>         0.0171
     18 C12         0.0266    1.3660    0.0524 C.ar      1 <0>        -0.2330
     19 C13         1.2267    2.0655    0.0475 C.ar      1 <0>         0.1685
     20 C14         2.4307    1.3730    0.0236 C.ar      1 <0>        -0.2343
     21 C15         2.4308   -0.0079    0.0034 C.ar      1 <0>         0.0308
     22 N4          1.2229    3.4621    0.0675 N.pl3     1 <0>        -0.4102
     23 H1          5.9312   -1.1915   -9.1856 H         1 <0>         0.0665
     24 H2          7.5188   -1.9238   -8.8520 H         1 <0>         0.0793
     25 H3          6.0301   -2.8540   -8.5575 H         1 <0>         0.0855
     26 H4          7.3141   -0.2248   -5.6188 H         1 <0>         0.0948
     27 H5          8.4478   -0.8774   -6.8259 H         1 <0>         0.0714
     28 H6          7.4075    0.5066   -7.2388 H         1 <0>         0.0691
     29 H7          4.3393   -2.8137   -7.8241 H         1 <0>         0.1345
     30 H8          2.5135   -3.4965   -6.3270 H         1 <0>         0.1287
     31 H9          4.4008   -1.4057   -3.0896 H         1 <0>         0.1500
     32 H10         6.2264   -0.7377   -4.5935 H         1 <0>         0.1364
     33 H11         1.4328   -3.5117   -4.0830 H         1 <0>         0.1186
     34 H12         0.4908   -3.4719   -1.9438 H         1 <0>         0.2222
     35 H13        -0.8986   -0.5594    0.0368 H         1 <0>         0.1457
     36 H14        -0.9112    1.9014    0.0672 H         1 <0>         0.1333
     37 H15         3.3655    1.9139    0.0201 H         1 <0>         0.1336
     38 H16         3.3665   -0.5469   -0.0155 H         1 <0>         0.1535
     39 H17         0.3816    3.9446    0.0848 H         1 <0>         0.2228
     40 H18         2.0615    3.9495    0.0641 H         1 <0>         0.2230
@<TRIPOS>BOND
     1    1    2 1
     2    1   23 1
     3    1   24 1
     4    1   25 1
     5    2    3 1
     6    2    4 1
     7    3   26 1
     8    3   27 1
     9    3   28 1
    10    4    9 ar
    11    4    5 ar
    12    5    6 ar
    13    5   29 1
    14    6    7 ar
    15    6   30 1
    16    7    8 ar
    17    7   10 1
    18    8    9 ar
    19    8   31 1
    20    9   32 1
    21   10   11 2
    22   10   33 1
    23   11   12 1
    24   12   13 1
    25   12   34 1
    26   13   14 2
    27   13   15 2
    28   13   16 1
    29   16   21 ar
    30   16   17 ar
    31   17   18 ar
    32   17   35 1
    33   18   19 ar
    34   18   36 1
    35   19   20 ar
    36   19   22 1
    37   20   21 ar
    38   20   37 1
    39   21   38 1
    40   22   39 1
    41   22   40 1
@<TRIPOS>MOLECULE
ZINC01768798
   41    42     0     0     0
SMALL
USER_CHARGES

@<TRIPOS>ATOM
      1 C1          7.2403   -1.9222   -6.7006 C.3       1 <0>        -0.1759
      2 C2          6.1260   -2.3304   -5.7718 C.ar      1 <0>        -0.0645
      3 C3          6.3726   -3.2380   -4.7570 C.ar      1 <0>        -0.1361
      4 C4          5.3563   -3.6163   -3.9040 C.ar      1 <0>        -0.0929
      5 C5          4.0784   -3.0816   -4.0661 C.ar      1 <0>        -0.0568
      6 C6          3.8348   -2.1715   -5.0939 C.ar      1 <0>        -0.0600
      7 C7          4.8608   -1.7967   -5.9375 C.ar      1 <0>        -0.1317
      8 C8          2.4554   -1.5938   -5.2796 C.3       1 <0>        -0.1804
      9 C9          2.9830   -3.4835   -3.1537 C.2       1 <0>         0.0885
     10 C10         2.6599   -4.7709   -3.0265 C.2       1 <0>        -0.3129
     11 N1          2.2892   -2.5150   -2.4274 N.pl3     1 <0>        -0.2676
     12 N2          1.2531   -2.8952   -1.5644 N.pl3     1 <0>        -0.7590
     13 S1          1.2913   -2.4385    0.0269 S.o2      1 <0>         2.7650
     14 O1          2.5441   -2.8674    0.5426 O.2       1 <0>        -0.9000
     15 O2          0.0540   -2.8444    0.5958 O.2       1 <0>        -0.9120
     16 C11         1.3083   -0.6769    0.0631 C.ar      1 <0>        -0.8238
     17 C12         0.1168    0.0238    0.1028 C.ar      1 <0>         0.0205
     18 C13         0.1266    1.4045    0.1312 C.ar      1 <0>        -0.2316
     19 C14         1.3351    2.0894    0.1198 C.ar      1 <0>         0.1694
     20 C15         2.5301    1.3823    0.0808 C.ar      1 <0>        -0.2320
     21 C16         2.5132    0.0017    0.0521 C.ar      1 <0>         0.0144
     22 N3          1.3485    3.4857    0.1485 N.pl3     1 <0>        -0.4076
     23 H1          7.2653   -2.5966   -7.5566 H         1 <0>         0.0880
     24 H2          7.0699   -0.9026   -7.0464 H         1 <0>         0.0811
     25 H3          8.1915   -1.9720   -6.1708 H         1 <0>         0.0827
     26 H4          7.3626   -3.6513   -4.6325 H         1 <0>         0.1334
     27 H5          5.5498   -4.3253   -3.1126 H         1 <0>         0.1434
     28 H6          4.6742   -1.0890   -6.7317 H         1 <0>         0.1322
     29 H7          2.3885   -0.6384   -4.7593 H         1 <0>         0.0797
     30 H8          2.2646   -1.4431   -6.3422 H         1 <0>         0.0842
     31 H9          1.7152   -2.2823   -4.8717 H         1 <0>         0.0957
     32 H10         3.2479   -5.5271   -3.5253 H         1 <0>         0.1275
     33 H11         1.8102   -5.0575   -2.4246 H         1 <0>         0.1177
     34 H12         2.5243   -1.5785   -2.5199 H         1 <0>         0.2512
     35 H13         0.5134   -3.4260   -1.8990 H         1 <0>         0.2471
     36 H14        -0.8224   -0.5093    0.1120 H         1 <0>         0.1491
     37 H15        -0.8044    1.9512    0.1578 H         1 <0>         0.1359
     38 H16         3.4714    1.9117    0.0722 H         1 <0>         0.1363
     39 H17         3.4419   -0.5486    0.0214 H         1 <0>         0.1526
     40 H18         0.5134    3.9784    0.1764 H         1 <0>         0.2246
     41 H19         2.1930    3.9629    0.1405 H         1 <0>         0.2246
@<TRIPOS>BOND
     1    1    2 1
     2    1   23 1
     3    1   24 1
     4    1   25 1
     5    2    7 ar
     6    2    3 ar
     7    3    4 ar
     8    3   26 1
     9    4    5 ar
    10    4   27 1
    11    5    6 ar
    12    5    9 1
    13    6    7 ar
    14    6    8 1
    15    7   28 1
    16    8   29 1
    17    8   30 1
    18    8   31 1
    19    9   10 2
    20    9   11 1
    21   10   32 1
    22   10   33 1
    23   11   12 1
    24   11   34 1
    25   12   13 1
    26   12   35 1
    27   13   14 2
    28   13   15 2
    29   13   16 1
    30   16   21 ar
    31   16   17 ar
    32   17   18 ar
    33   17   36 1
    34   18   19 ar
    35   18   37 1
    36   19   20 ar
    37   19   22 1
    38   20   21 ar
    39   20   38 1
    40   21   39 1
    41   22   40 1
    42   22   41 1
@<TRIPOS>MOLECULE
ZINC01770633
   40    41     0     0     0
SMALL
USER_CHARGES

@<TRIPOS>ATOM
      1 C1         -0.0127    1.0858    0.0080 C.3       1 <0>        -0.0801
      2 N1         -0.6984    1.5583    1.2133 N.am      1 <0>        -0.2659
      3 C2         -0.8314    2.9042    1.4355 C.2       1 <0>         0.2959
      4 C3         -1.4910    3.3396    2.5855 C.2       1 <0>        -0.3491
      5 C4         -1.9914    2.3671    3.4894 C.2       1 <0>         0.3655
      6 O1         -2.5688    2.7108    4.5054 O.2       1 <0>        -0.3160
      7 N2         -1.8218    1.0592    3.2123 N.am      1 <0>        -0.3012
      8 C5         -1.1867    0.6677    2.0943 C.2       1 <0>         0.4089
      9 O2         -1.0509   -0.5202    1.8742 O.2       1 <0>        -0.3575
     10 C6         -2.3359    0.0508    4.1423 C.3       1 <0>        -0.0584
     11 C7         -1.6589    4.7744    2.8572 C.2       1 <0>        -0.0325
     12 N3         -2.2715    5.1643    3.9353 N.2       1 <0>         0.0221
     13 N4         -2.4315    6.5318    4.1943 N.am      1 <0>        -0.3151
     14 C8         -3.0667    6.9361    5.3122 C.2       1 <0>         0.2935
     15 O3         -3.4998    6.1157    6.0943 O.2       1 <0>        -0.2897
     16 C9         -3.2388    8.4071    5.5908 C.3       1 <0>        -0.1089
     17 N5         -3.9551    8.5838    6.8565 N.ar      1 <0>         0.0262
     18 C10        -5.2717    8.6565    6.8444 C.ar      1 <0>        -0.0011
     19 C11        -5.9816    8.8183    8.0191 C.ar      1 <0>        -0.1278
     20 C12        -5.2914    8.9149    9.2178 C.ar      1 <0>        -0.0110
     21 C13        -3.9072    8.8394    9.1901 C.ar      1 <0>        -0.1279
     22 C14        -3.2660    8.6714    7.9774 C.ar      1 <0>        -0.0008
     23 N6         -0.3289    3.8073    0.5407 N.pl3     1 <0>        -0.3815
     24 H1          0.0021   -0.0041    0.0020 H         1 <0>         0.1519
     25 H2          1.0099    1.4631    0.0003 H         1 <0>         0.0878
     26 H3         -0.5399    1.4469   -0.8751 H         1 <0>         0.0880
     27 H4         -1.5685   -0.1899    4.8780 H         1 <0>         0.0912
     28 H5         -3.2172    0.4414    4.6511 H         1 <0>         0.1145
     29 H6         -2.6047   -0.8496    3.5898 H         1 <0>         0.1114
     30 H7         -1.2734    5.5046    2.1611 H         1 <0>         0.0956
     31 H8         -2.0853    7.1876    3.5691 H         1 <0>         0.1973
     32 H9         -2.2597    8.8812    5.6582 H         1 <0>         0.1498
     33 H10        -3.8096    8.8655    4.7832 H         1 <0>         0.1498
     34 H11        -5.8017    8.5851    5.9061 H         1 <0>         0.2049
     35 H12        -7.0601    8.8734    8.0032 H         1 <0>         0.1958
     36 H13        -5.8193    9.0463   10.1507 H         1 <0>         0.1884
     37 H14        -3.3373    8.9105   10.1047 H         1 <0>         0.1958
     38 H15        -2.1881    8.6117    7.9473 H         1 <0>         0.2050
     39 H16         0.1255    3.4971   -0.2582 H         1 <0>         0.2384
     40 H17        -0.4269    4.7583    0.7046 H         1 <0>         0.2467
@<TRIPOS>BOND
     1    1    2 1
     2    1   24 1
     3    1   25 1
     4    1   26 1
     5    2    8 am
     6    2    3 1
     7    3    4 2
     8    3   23 1
     9    4    5 1
    10    4   11 1
    11    5    6 2
    12    5    7 am
    13    7    8 am
    14    7   10 1
    15    8    9 2
    16   10   27 1
    17   10   28 1
    18   10   29 1
    19   11   12 2
    20   11   30 1
    21   12   13 1
    22   13   14 am
    23   13   31 1
    24   14   15 2
    25   14   16 1
    26   16   17 1
    27   16   32 1
    28   16   33 1
    29   17   22 ar
    30   17   18 ar
    31   18   19 ar
    32   18   34 1
    33   19   20 ar
    34   19   35 1
    35   20   21 ar
    36   20   36 1
    37   21   22 ar
    38   21   37 1
    39   22   38 1
    40   23   39 1
    41   23   40 1
@<TRIPOS>MOLECULE
ZINC01774311
   39    41     0     0     0
SMALL
USER_CHARGES

@<TRIPOS>ATOM
      1 C1          3.7069    3.2971   -0.3698 C.3       1 <0>        -0.1547
      2 C2          2.3909    3.9617   -0.0574 C.2       1 <0>        -0.0564
      3 C3          1.1611    3.1663   -0.0172 C.ar      1 <0>        -0.0618
      4 C4          1.1797    1.7718   -0.0182 C.ar      1 <0>        -0.1126
      5 C5         -0.0102    1.0769    0.0150 C.ar      1 <0>        -0.1120
      6 C6         -1.2258    1.7463    0.0433 C.ar      1 <0>        -0.1268
      7 C7         -1.2685    3.1257    0.0519 C.ar      1 <0>        -0.0740
      8 C8         -0.0799    3.8441    0.0206 C.ar      1 <0>        -0.0403
      9 C9         -0.0420    5.3191    0.0279 C.2       1 <0>         0.1534
     10 N1         -1.0650    6.0497   -0.3695 N.2       1 <0>        -0.2202
     11 C10        -1.0244    7.4113   -0.2405 C.ar      1 <0>        -0.0361
     12 C11        -1.4199    8.0129    0.9594 C.ar      1 <0>        -0.0970
     13 C12        -1.3752    9.3834    1.0961 C.ar      1 <0>        -0.2226
     14 C13        -0.9487   10.1780    0.0413 C.ar      1 <0>         0.1380
     15 C14        -0.5556    9.5874   -1.1674 C.ar      1 <0>        -0.1503
     16 C15        -0.5948    8.1996   -1.3054 C.ar      1 <0>        -0.0815
     17 C16        -0.1014   10.4305   -2.2901 C.2       1 <0>         0.3515
     18 O1         -0.0681   11.6397   -2.1677 O.2       1 <0>        -0.3484
     19 N2          0.2765    9.8601   -3.4513 N.am      1 <0>        -0.4339
     20 O2         -0.9128   11.5278    0.1801 O.3       1 <0>        -0.1651
     21 C17        -1.3274   12.0618    1.4390 C.3       1 <0>        -0.0695
     22 N3          1.1386    5.8862    0.4791 N.pl3     1 <0>        -0.3142
     23 H1          1.1293    6.7090    0.9926 H         1 <0>         0.2772
     24 N4          2.3485    5.2424    0.1765 N.2       1 <0>        -0.0143
     25 H2          3.8764    3.3149   -1.4464 H         1 <0>         0.0982
     26 H3          4.5125    3.8317    0.1337 H         1 <0>         0.1022
     27 H4          3.6838    2.2642   -0.0227 H         1 <0>         0.0904
     28 H5          2.1195    1.2404   -0.0451 H         1 <0>         0.1395
     29 H6          0.0034   -0.0031    0.0146 H         1 <0>         0.1348
     30 H7         -2.1467    1.1825    0.0632 H         1 <0>         0.1381
     31 H8         -2.2169    3.6417    0.0787 H         1 <0>         0.1591
     32 H9         -1.7573    7.4007    1.7827 H         1 <0>         0.1388
     33 H10        -1.6778    9.8413    2.0263 H         1 <0>         0.1414
     34 H11        -0.2929    7.7383   -2.2341 H         1 <0>         0.1405
     35 H12         0.2499    8.8954   -3.5490 H         1 <0>         0.2142
     36 H13         0.5750   10.4143   -4.1893 H         1 <0>         0.2296
     37 H14        -2.3609   11.7748    1.6328 H         1 <0>         0.0660
     38 H15        -0.6871   11.6690    2.2289 H         1 <0>         0.0637
     39 H16        -1.2503   13.1488    1.4157 H         1 <0>         0.1151
@<TRIPOS>BOND
     1    1    2 1
     2    1   25 1
     3    1   26 1
     4    1   27 1
     5    2   24 2
     6    2    3 1
     7    3    8 ar
     8    3    4 ar
     9    4    5 ar
    10    4   28 1
    11    5    6 ar
    12    5   29 1
    13    6    7 ar
    14    6   30 1
    15    7    8 ar
    16    7   31 1
    17    8    9 1
    18    9   10 2
    19    9   22 1
    20   10   11 1
    21   11   16 ar
    22   11   12 ar
    23   12   13 ar
    24   12   32 1
    25   13   14 ar
    26   13   33 1
    27   14   15 ar
    28   14   20 1
    29   15   16 ar
    30   15   17 1
    31   16   34 1
    32   17   18 2
    33   17   19 am
    34   19   35 1
    35   19   36 1
    36   20   21 1
    37   21   37 1
    38   21   38 1
    39   21   39 1
    40   22   23 1
    41   22   24 1
@<TRIPOS>MOLECULE
ZINC01795259
   42    44     0     0     0
SMALL
USER_CHARGES

@<TRIPOS>ATOM
      1 C1         -1.3457    2.0795    0.0197 C.3       1 <0>        -0.1751
      2 C2         -0.0165    1.3692    0.0096 C.2       1 <0>         0.1511
      3 C3          1.1081    2.0992    0.0028 C.2       1 <0>        -0.3255
      4 C4          2.4843    1.4890   -0.0012 C.3       1 <0>         0.1676
      5 H1          3.0930    1.9705   -0.7666 H         1 <0>         0.1159
      6 N1          2.3820    0.0608   -0.2878 N.pl3     1 <0>        -0.1758
      7 C5          1.2119   -0.6249   -0.2774 C.2       1 <0>         0.1346
      8 N2          1.4728   -1.8708   -0.5636 N.2       1 <0>        -0.2554
      9 C6          2.7859   -2.0177   -0.7671 C.2       1 <0>        -0.0330
     10 N3          3.3783   -0.8596   -0.6093 N.2       1 <0>        -0.0930
     11 C7          3.4755   -3.3101   -1.1209 C.3       1 <0>        -0.0664
     12 C8          3.8933   -4.0328    0.1613 C.3       1 <0>        -0.1598
     13 C9          4.5934   -5.3450   -0.1979 C.3       1 <0>        -0.0007
     14 O1          4.9836   -6.0200    0.9997 O.3       1 <0>        -0.3530
     15 N4          0.0021   -0.0041    0.0020 N.pl3     1 <0>        -0.2472
     16 C10         3.1256    1.6859    1.3482 C.ar      1 <0>        -0.1030
     17 C11         2.5275    1.1650    2.4803 C.ar      1 <0>        -0.0954
     18 C12         3.1178    1.3423    3.7177 C.ar      1 <0>        -0.1240
     19 C13         4.3020    2.0476    3.8239 C.ar      1 <0>        -0.1164
     20 C14         4.8973    2.5731    2.6924 C.ar      1 <0>        -0.1254
     21 C15         4.3091    2.3924    1.4546 C.ar      1 <0>        -0.1173
     22 C16         0.9961    3.5099   -0.0007 C.2       1 <0>         0.3784
     23 O2         -0.1034    4.0335    0.0026 O.2       1 <0>        -0.4024
     24 N5          2.1063    4.2741   -0.0075 N.am      1 <0>        -0.4277
     25 H2         -2.1504    1.3443    0.0194 H         1 <0>         0.0634
     26 H3         -1.4198    2.6990    0.9134 H         1 <0>         0.1321
     27 H4         -1.4281    2.7087   -0.8665 H         1 <0>         0.1362
     28 H5          2.7929   -3.9425   -1.6885 H         1 <0>         0.1061
     29 H6          4.3592   -3.0976   -1.7226 H         1 <0>         0.1016
     30 H7          4.5758   -3.4004    0.7290 H         1 <0>         0.1039
     31 H8          3.0096   -4.2454    0.7630 H         1 <0>         0.1052
     32 H9          3.9108   -5.9774   -0.7655 H         1 <0>         0.0575
     33 H10         5.4771   -5.1324   -0.7996 H         1 <0>         0.0568
     34 H11         5.4345   -6.8618    0.8476 H         1 <0>         0.2096
     35 H12        -0.7988   -0.5200    0.1845 H         1 <0>         0.2713
     36 H13         1.6007    0.6168    2.3978 H         1 <0>         0.1335
     37 H14         2.6525    0.9321    4.6018 H         1 <0>         0.1336
     38 H15         4.7618    2.1884    4.7909 H         1 <0>         0.1320
     39 H16         5.8223    3.1244    2.7754 H         1 <0>         0.1321
     40 H17         4.7742    2.8030    0.5705 H         1 <0>         0.1262
     41 H18         2.9821    3.8570   -0.0101 H         1 <0>         0.2181
     42 H19         2.0295    5.2410   -0.0099 H         1 <0>         0.2296
@<TRIPOS>BOND
     1    1    2 1
     2    1   25 1
     3    1   26 1
     4    1   27 1
     5    2   15 1
     6    2    3 2
     7    3    4 1
     8    3   22 1
     9    4    5 1
    10    4    6 1
    11    4   16 1
    12    6   10 1
    13    6    7 1
    14    7    8 2
    15    7   15 1
    16    8    9 1
    17    9   10 2
    18    9   11 1
    19   11   12 1
    20   11   28 1
    21   11   29 1
    22   12   13 1
    23   12   30 1
    24   12   31 1
    25   13   14 1
    26   13   32 1
    27   13   33 1
    28   14   34 1
    29   15   35 1
    30   16   21 ar
    31   16   17 ar
    32   17   18 ar
    33   17   36 1
    34   18   19 ar
    35   18   37 1
    36   19   20 ar
    37   19   38 1
    38   20   21 ar
    39   20   39 1
    40   21   40 1
    41   22   23 2
    42   22   24 am
    43   24   41 1
    44   24   42 1
@<TRIPOS>MOLECULE
ZINC01796995
   40    42     0     0     0
SMALL
USER_CHARGES

@<TRIPOS>ATOM
      1 C1          1.9196    2.3961    3.5751 C.3       1 <0>        -0.0682
      2 O1          1.2243    2.0305    2.3814 O.3       1 <0>        -0.1889
      3 C2          1.8138    2.3542    1.2002 C.ar      1 <0>         0.0820
      4 C3          3.0415    3.0070    1.1865 C.ar      1 <0>        -0.1872
      5 C4          3.6412    3.3430    0.0025 C.ar      1 <0>        -0.0836
      6 C5          3.0399    3.0344   -1.2427 C.ar      1 <0>        -0.0530
      7 C6          3.7922    3.4522   -2.4138 C.2       1 <0>        -0.0586
      8 C7          3.4378    3.2774   -3.7111 C.2       1 <0>        -0.2655
      9 S1          1.8841    2.4456   -3.9731 S.3       1 <0>         0.1492
     10 C8          1.0717    1.9921   -2.4535 C.2       1 <0>         0.1889
     11 O2         -0.0015    1.4159   -2.4302 O.2       1 <0>        -0.2163
     12 C9          1.8007    2.3688   -1.2220 C.ar      1 <0>        -0.1311
     13 C10         1.1974    2.0309    0.0011 C.ar      1 <0>         0.0856
     14 O3          0.0009    1.3889    0.0089 O.3       1 <0>        -0.2041
     15 C11         0.0311   -0.0397   -0.0004 C.3       1 <0>        -0.0483
     16 C12         4.2793    3.7425   -4.8261 C.2       1 <0>         0.3767
     17 O4          5.3333    4.3056   -4.5989 O.2       1 <0>        -0.3498
     18 N1          3.8818    3.5442   -6.0986 N.am      1 <0>        -0.3118
     19 C13         4.6324    4.0706   -7.1565 C.ar      1 <0>         0.0487
     20 C14         3.9935    4.5281   -8.3016 C.ar      1 <0>        -0.1432
     21 C15         4.7342    5.0525   -9.3423 C.ar      1 <0>        -0.1380
     22 C16         6.1170    5.1119   -9.2489 C.ar      1 <0>         0.0563
     23 C17         6.7564    4.6499   -8.1077 C.ar      1 <0>        -0.1384
     24 C18         6.0168    4.1305   -7.0638 C.ar      1 <0>        -0.1141
     25 O5          6.8461    5.6237  -10.2762 O.3       1 <0>        -0.2906
     26 H1          2.0531    3.4776    3.6011 H         1 <0>         0.0720
     27 H2          1.3414    2.0804    4.4435 H         1 <0>         0.1168
     28 H3          2.8946    1.9091    3.5913 H         1 <0>         0.0681
     29 H4          3.5246    3.2561    2.1198 H         1 <0>         0.1459
     30 H5          4.5927    3.8536    0.0180 H         1 <0>         0.1441
     31 H6          4.7308    3.9544   -2.2320 H         1 <0>         0.1632
     32 H7         -0.9886   -0.4248    0.0072 H         1 <0>         0.1121
     33 H8          0.5437   -0.3864   -0.8977 H         1 <0>         0.0647
     34 H9          0.5613   -0.3977    0.8821 H         1 <0>         0.0598
     35 H10         3.0756    3.0367   -6.2813 H         1 <0>         0.2438
     36 H11         2.9173    4.4775   -8.3764 H         1 <0>         0.1354
     37 H12         4.2371    5.4124  -10.2310 H         1 <0>         0.1422
     38 H13         7.8331    4.6962   -8.0359 H         1 <0>         0.1441
     39 H14         6.5147    3.7711   -6.1754 H         1 <0>         0.1665
     40 H15         7.1161    4.9667  -10.9324 H         1 <0>         0.2247
@<TRIPOS>BOND
     1    1    2 1
     2    1   26 1
     3    1   27 1
     4    1   28 1
     5    2    3 1
     6    3   13 ar
     7    3    4 ar
     8    4    5 ar
     9    4   29 1
    10    5    6 ar
    11    5   30 1
    12    6   12 ar
    13    6    7 1
    14    7    8 2
    15    7   31 1
    16    8    9 1
    17    8   16 1
    18    9   10 1
    19   10   11 2
    20   10   12 1
    21   12   13 ar
    22   13   14 1
    23   14   15 1
    24   15   32 1
    25   15   33 1
    26   15   34 1
    27   16   17 2
    28   16   18 am
    29   18   19 1
    30   18   35 1
    31   19   24 ar
    32   19   20 ar
    33   20   21 ar
    34   20   36 1
    35   21   22 ar
    36   21   37 1
    37   22   23 ar
    38   22   25 1
    39   23   24 ar
    40   23   38 1
    41   24   39 1
    42   25   40 1
@<TRIPOS>MOLECULE
ZINC01803016
   40    42     0     0     0
SMALL
USER_CHARGES

@<TRIPOS>ATOM
      1 C1          4.1669    4.3982   -5.5931 C.3       1 <0>        -0.1841
      2 C2          3.8432    3.3712   -4.5389 C.ar      1 <0>        -0.0185
      3 C3          4.8501    2.8542   -3.7453 C.ar      1 <0>        -0.1536
      4 C4          4.5531    1.9121   -2.7783 C.ar      1 <0>        -0.0230
      5 C5          3.2491    1.4876   -2.6043 C.ar      1 <0>        -0.7650
      6 C6          2.2429    2.0011   -3.4011 C.ar      1 <0>        -0.0199
      7 C7          2.5392    2.9464   -4.3652 C.ar      1 <0>        -0.1534
      8 S1          2.8705    0.2868   -1.3716 S.o2      1 <0>         2.7608
      9 O1          4.0826   -0.3972   -1.0852 O.2       1 <0>        -0.9142
     10 O2          1.6994   -0.3889   -1.8090 O.2       1 <0>        -0.9109
     11 N1          2.4557    1.1108    0.0036 N.pl3     1 <0>        -0.8222
     12 C8          1.3199    1.9273    0.0140 C.ar      1 <0>         0.0183
     13 C9          1.4584    3.3128   -0.0214 C.ar      1 <0>        -0.1089
     14 C10         0.3484    4.1286   -0.0116 C.ar      1 <0>        -0.1124
     15 C11        -0.9245    3.5723    0.0334 C.ar      1 <0>         0.0267
     16 C12        -1.0649    2.1774    0.0642 C.ar      1 <0>        -0.0824
     17 C13         0.0587    1.3577    0.0600 C.ar      1 <0>        -0.0619
     18 C14        -2.5202    1.9290    0.1003 C.2       1 <0>        -0.2180
     19 C15        -3.1046    3.1577    0.0831 C.2       1 <0>         0.0418
     20 O3         -2.1635    4.1081    0.0520 O.3       1 <0>        -0.0725
     21 C16        -4.5901    3.4104    0.1079 C.3       1 <0>        -0.1449
     22 C17        -3.1972    0.6243    0.1462 C.2       1 <0>         0.3769
     23 O4         -3.4555    0.1105    1.2182 O.2       1 <0>        -0.3536
     24 N2         -3.5316   -0.0020   -0.9993 N.am      1 <0>        -0.4224
     25 H1          4.3989    3.8948   -6.5317 H         1 <0>         0.0951
     26 H2          3.3092    5.0555   -5.7356 H         1 <0>         0.0864
     27 H3          5.0270    4.9872   -5.2745 H         1 <0>         0.0866
     28 H4          5.8688    3.1861   -3.8810 H         1 <0>         0.1374
     29 H5          5.3398    1.5079   -2.1585 H         1 <0>         0.1506
     30 H6          1.2248    1.6662   -3.2681 H         1 <0>         0.1492
     31 H7          1.7525    3.3505   -4.9850 H         1 <0>         0.1368
     32 H8          3.0003    1.0273    0.8019 H         1 <0>         0.2545
     33 H9          2.4447    3.7514   -0.0572 H         1 <0>         0.1455
     34 H10         0.4674    5.2017   -0.0394 H         1 <0>         0.1446
     35 H11        -0.0520    0.2837    0.0880 H         1 <0>         0.1649
     36 H12        -4.9269    3.4959    1.1411 H         1 <0>         0.1119
     37 H13        -4.8100    4.3362   -0.4237 H         1 <0>         0.0969
     38 H14        -5.1077    2.5820   -0.3756 H         1 <0>         0.1051
     39 H15        -3.3256    0.4077   -1.8541 H         1 <0>         0.2199
     40 H16        -3.9782   -0.8626   -0.9691 H         1 <0>         0.2321
@<TRIPOS>BOND
     1    1    2 1
     2    1   25 1
     3    1   26 1
     4    1   27 1
     5    2    7 ar
     6    2    3 ar
     7    3    4 ar
     8    3   28 1
     9    4    5 ar
    10    4   29 1
    11    5    6 ar
    12    5    8 1
    13    6    7 ar
    14    6   30 1
    15    7   31 1
    16    8    9 2
    17    8   10 2
    18    8   11 1
    19   11   12 1
    20   11   32 1
    21   12   17 ar
    22   12   13 ar
    23   13   14 ar
    24   13   33 1
    25   14   15 ar
    26   14   34 1
    27   15   20 1
    28   15   16 ar
    29   16   17 ar
    30   16   18 1
    31   17   35 1
    32   18   19 2
    33   18   22 1
    34   19   20 1
    35   19   21 1
    36   21   36 1
    37   21   37 1
    38   21   38 1
    39   22   23 2
    40   22   24 am
    41   24   39 1
    42   24   40 1
@<TRIPOS>MOLECULE
ZINC01817178
   45    47     0     0     0
SMALL
USER_CHARGES

@<TRIPOS>ATOM
      1 C1          0.9783    3.3809    0.0571 C.3       1 <0>        -0.1739
      2 C2          0.9915    1.8753   -0.0068 C.2       1 <0>         0.1015
      3 C3         -0.1746    1.2145    0.0308 C.2       1 <0>        -0.1911
      4 C4         -0.2095   -0.2851   -0.0321 C.3       1 <0>         0.0980
      5 C5         -0.5380   -0.8627    1.3216 C.ar      1 <0>        -0.1235
      6 C6          0.0894   -0.8046    2.5459 C.ar      1 <0>        -0.0571
      7 C7         -0.4644   -1.4504    3.6373 C.ar      1 <0>        -0.1533
      8 C8         -1.6467   -2.1535    3.4935 C.ar      1 <0>        -0.0899
      9 C9         -2.2774   -2.2141    2.2682 C.ar      1 <0>        -0.1516
     10 C10        -1.7265   -1.5660    1.1645 C.ar      1 <0>         0.0750
     11 N1         -2.1669   -1.4801   -0.1572 N.am      1 <0>        -0.2709
     12 C11        -1.3370   -0.7495   -0.9230 C.2       1 <0>         0.3241
     13 O1         -1.4690   -0.5092   -2.1045 O.2       1 <0>        -0.2976
     14 C12        -3.3920   -2.1123   -0.6530 C.3       1 <0>         0.1090
     15 C13        -4.4998   -1.1445   -0.5997 C.1       1 <0>        -0.1946
     16 C14        -5.3834   -0.3727   -0.5571 C.1       1 <0>        -0.1790
     17 C15         1.1037   -0.8204   -0.5266 C.2       1 <0>        -0.2473
     18 C16         2.2075   -0.0316   -0.5330 C.2       1 <0>         0.2727
     19 O2          2.1688    1.2405   -0.0999 O.3       1 <0>        -0.1379
     20 N2          3.3943   -0.5458   -0.9930 N.pl3     1 <0>        -0.3803
     21 C17         1.1913   -2.1712   -0.9936 C.1       1 <0>        -0.0619
     22 N3          1.2609   -3.2429   -1.3640 N.1       1 <0>        -0.0645
     23 C18        -1.3877    1.9398    0.1252 C.2       1 <0>         0.3599
     24 O3         -1.9487    2.0496    1.1991 O.2       1 <0>        -0.3350
     25 O4         -1.9209    2.5087   -0.9758 O.3       1 <0>        -0.2473
     26 C19        -3.2049    3.1195   -0.8334 C.3       1 <0>         0.0221
     27 C20        -3.6875    3.5943   -2.1797 C.2       1 <0>        -0.1671
     28 C21        -4.9229    3.3656   -2.5507 C.2       1 <0>        -0.2015
     29 H1          1.0720    3.7013    1.0947 H         1 <0>         0.1092
     30 H2          1.8127    3.7764   -0.5221 H         1 <0>         0.1026
     31 H3          0.0407    3.7539   -0.3552 H         1 <0>         0.1190
     32 H4          1.0129   -0.2552    2.6544 H         1 <0>         0.1320
     33 H5          0.0259   -1.4065    4.5986 H         1 <0>         0.1336
     34 H6         -2.0788   -2.6576    4.3453 H         1 <0>         0.1335
     35 H7         -3.2006   -2.7648    2.1642 H         1 <0>         0.1324
     36 H8         -3.2422   -2.4368   -1.6828 H         1 <0>         0.1292
     37 H9         -3.6328   -2.9749   -0.0316 H         1 <0>         0.1113
     38 H10        -6.1736    0.3177   -0.5191 H         1 <0>         0.2163
     39 H11         3.4361   -1.4622   -1.3081 H         1 <0>         0.2612
     40 H12         4.1910    0.0074   -1.0030 H         1 <0>         0.2314
     41 H13        -3.9102    2.3928   -0.4301 H         1 <0>         0.0964
     42 H14        -3.1300    3.9687   -0.1541 H         1 <0>         0.0885
     43 H15        -3.0149    4.1231   -2.8388 H         1 <0>         0.1349
     44 H16        -5.6184    2.9108   -1.8609 H         1 <0>         0.1104
     45 H17        -5.2459    3.6319   -3.5463 H         1 <0>         0.1208
@<TRIPOS>BOND
     1    1    2 1
     2    1   29 1
     3    1   30 1
     4    1   31 1
     5    2   19 1
     6    2    3 2
     7    3    4 1
     8    3   23 1
     9    4   12 1
    10    4    5 1
    11    4   17 1
    12    5   10 ar
    13    5    6 ar
    14    6    7 ar
    15    6   32 1
    16    7    8 ar
    17    7   33 1
    18    8    9 ar
    19    8   34 1
    20    9   10 ar
    21    9   35 1
    22   10   11 1
    23   11   12 am
    24   11   14 1
    25   12   13 2
    26   14   15 1
    27   14   36 1
    28   14   37 1
    29   15   16 3
    30   16   38 1
    31   17   18 2
    32   17   21 1
    33   18   19 1
    34   18   20 1
    35   20   39 1
    36   20   40 1
    37   21   22 3
    38   23   24 2
    39   23   25 1
    40   25   26 1
    41   26   27 1
    42   26   41 1
    43   26   42 1
    44   27   28 2
    45   27   43 1
    46   28   44 1
    47   28   45 1
@<TRIPOS>MOLECULE
ZINC01820117
   40    42     0     0     0
SMALL
USER_CHARGES

@<TRIPOS>ATOM
      1 C1         -5.0551    3.2074   -2.4547 C.3       1 <0>        -0.1756
      2 C2         -4.3376    3.4064   -1.1445 C.2       1 <0>         0.1035
      3 C3         -3.0724    3.8498   -1.1596 C.2       1 <0>        -0.1934
      4 C4         -2.3186    4.0667    0.1202 C.3       1 <0>         0.0961
      5 C5         -1.2797    2.9906    0.3121 C.ar      1 <0>        -0.1245
      6 C6         -1.3556    1.6216    0.4388 C.ar      1 <0>        -0.0562
      7 C7         -0.2012    0.8788    0.6135 C.ar      1 <0>        -0.1533
      8 C8          1.0269    1.5138    0.6492 C.ar      1 <0>        -0.0893
      9 C9          1.1070    2.8844    0.5162 C.ar      1 <0>        -0.1541
     10 C10        -0.0512    3.6401    0.3456 C.ar      1 <0>         0.0689
     11 N1         -0.2283    5.0159    0.1909 N.am      1 <0>        -0.3082
     12 C11        -1.5238    5.3493    0.0523 C.2       1 <0>         0.3209
     13 O1         -1.9692    6.4674   -0.0982 O.2       1 <0>        -0.3022
     14 C12        -3.2631    4.0994    1.2874 C.2       1 <0>        -0.2463
     15 C13        -4.5315    3.6364    1.1580 C.2       1 <0>         0.2722
     16 O2         -4.9856    3.1338   -0.0030 O.3       1 <0>        -0.1374
     17 N2         -5.3736    3.6829    2.2411 N.pl3     1 <0>        -0.3802
     18 C14        -2.8215    4.6219    2.5454 C.1       1 <0>        -0.0629
     19 N3         -2.4712    5.0364    3.5434 N.1       1 <0>        -0.0626
     20 C15        -2.4396    4.1172   -2.3982 C.2       1 <0>         0.3595
     21 O3         -1.6828    3.2978   -2.8841 O.2       1 <0>        -0.3373
     22 O4         -2.6760    5.2806   -3.0393 O.3       1 <0>        -0.2470
     23 C16        -2.0040    5.4837   -4.2840 C.3       1 <0>         0.0213
     24 C17        -2.3876    6.8272   -4.8486 C.2       1 <0>        -0.1697
     25 C18        -1.4666    7.6178   -5.3413 C.2       1 <0>        -0.2002
     26 H1         -4.8144    2.2226   -2.8548 H         1 <0>         0.1108
     27 H2         -6.1308    3.2817   -2.2947 H         1 <0>         0.1026
     28 H3         -4.7392    3.9742   -3.1621 H         1 <0>         0.1186
     29 H4         -2.3158    1.1284    0.4064 H         1 <0>         0.1322
     30 H5         -0.2588   -0.1947    0.7172 H         1 <0>         0.1339
     31 H6          1.9280    0.9335    0.7823 H         1 <0>         0.1338
     32 H7          2.0697    3.3731    0.5448 H         1 <0>         0.1319
     33 H8          0.4991    5.6576    0.1845 H         1 <0>         0.2471
     34 H9         -6.2833    3.3555    2.1625 H         1 <0>         0.2314
     35 H10        -5.0590    4.0430    3.0850 H         1 <0>         0.2615
     36 H11        -0.9262    5.4509   -4.1245 H         1 <0>         0.0943
     37 H12        -2.2916    4.6996   -4.9844 H         1 <0>         0.0904
     38 H13        -3.4219    7.1382   -4.8471 H         1 <0>         0.1351
     39 H14        -1.7416    8.5807   -5.7460 H         1 <0>         0.1205
     40 H15        -0.4324    7.3068   -5.3429 H         1 <0>         0.1138
@<TRIPOS>BOND
     1    1    2 1
     2    1   26 1
     3    1   27 1
     4    1   28 1
     5    2   16 1
     6    2    3 2
     7    3    4 1
     8    3   20 1
     9    4   12 1
    10    4    5 1
    11    4   14 1
    12    5   10 ar
    13    5    6 ar
    14    6    7 ar
    15    6   29 1
    16    7    8 ar
    17    7   30 1
    18    8    9 ar
    19    8   31 1
    20    9   10 ar
    21    9   32 1
    22   10   11 1
    23   11   12 am
    24   11   33 1
    25   12   13 2
    26   14   15 2
    27   14   18 1
    28   15   16 1
    29   15   17 1
    30   17   34 1
    31   17   35 1
    32   18   19 3
    33   20   21 2
    34   20   22 1
    35   22   23 1
    36   23   24 1
    37   23   36 1
    38   23   37 1
    39   24   25 2
    40   24   38 1
    41   25   39 1
    42   25   40 1
@<TRIPOS>MOLECULE
ZINC01820118
   40    42     0     0     0
SMALL
USER_CHARGES

@<TRIPOS>ATOM
      1 C1          3.3381    2.5095   -0.7337 C.3       1 <0>        -0.1627
      2 C2          2.2294    1.5618   -0.3549 C.2       1 <0>         0.1495
      3 C3          2.4474    0.2417   -0.4406 C.2       1 <0>        -0.2266
      4 C4          1.3714   -0.7395   -0.0756 C.3       1 <0>         0.0877
      5 C5          1.6812   -1.3950    1.2469 C.ar      1 <0>        -0.1302
      6 C6          1.8416   -0.9060    2.5240 C.ar      1 <0>        -0.0650
      7 C7          2.1277   -1.7722    3.5646 C.ar      1 <0>        -0.1593
      8 C8          2.2515   -3.1273    3.3173 C.ar      1 <0>        -0.0902
      9 C9          2.0908   -3.6205    2.0391 C.ar      1 <0>        -0.1615
     10 C10         1.8033   -2.7547    0.9858 C.ar      1 <0>         0.0817
     11 N1          1.5993   -3.0055   -0.3720 N.am      1 <0>        -0.2971
     12 C11         1.3416   -1.8812   -1.0637 C.2       1 <0>         0.3390
     13 O1          1.1261   -1.7996   -2.2545 O.2       1 <0>        -0.3163
     14 C12         0.0345   -0.0574   -0.0232 C.2       1 <0>        -0.2409
     15 C13        -0.0437    1.2955    0.0382 C.2       1 <0>         0.2649
     16 O2          1.0575    2.0665    0.0573 O.3       1 <0>        -0.1370
     17 N2         -1.2790    1.8929    0.0760 N.pl3     1 <0>        -0.3803
     18 C14        -1.1648   -0.8398   -0.0376 C.1       1 <0>        -0.0640
     19 N3         -2.1162   -1.4605   -0.0491 N.1       1 <0>        -0.0615
     20 C15         3.7076   -0.2327   -0.8803 C.2       1 <0>         0.3746
     21 O3          4.5465    0.5517   -1.2818 O.2       1 <0>        -0.3830
     22 O4          3.9776   -1.5543   -0.8539 O.3       1 <0>        -0.2508
     23 C16         5.2684   -1.9621   -1.3120 C.3       1 <0>         0.0264
     24 C17         5.3873   -3.4609   -1.2097 C.2       1 <0>        -0.1724
     25 C18         5.8974   -4.1467   -2.2025 C.2       1 <0>        -0.2020
     26 H1          3.5608    2.4024   -1.7953 H         1 <0>         0.1350
     27 H2          3.0262    3.5338   -0.5294 H         1 <0>         0.0840
     28 H3          4.2293    2.2779   -0.1503 H         1 <0>         0.1309
     29 H4          1.7439    0.1528    2.7135 H         1 <0>         0.1311
     30 H5          2.2536   -1.3911    4.5672 H         1 <0>         0.1336
     31 H6          2.4748   -3.8031    4.1295 H         1 <0>         0.1334
     32 H7          2.1889   -4.6800    1.8542 H         1 <0>         0.1315
     33 H8          1.6385   -3.8889   -0.7708 H         1 <0>         0.2464
     34 H9         -2.0817    1.3486    0.0588 H         1 <0>         0.2616
     35 H10        -1.3493    2.8594    0.1200 H         1 <0>         0.2317
     36 H11         5.3984   -1.6573   -2.3504 H         1 <0>         0.0950
     37 H12         6.0368   -1.4938   -0.6970 H         1 <0>         0.0944
     38 H13         5.0520   -3.9696   -0.3180 H         1 <0>         0.1334
     39 H14         6.2327   -3.6380   -3.0942 H         1 <0>         0.1162
     40 H15         5.9827   -5.2209   -2.1292 H         1 <0>         0.1188
@<TRIPOS>BOND
     1    1    2 1
     2    1   26 1
     3    1   27 1
     4    1   28 1
     5    2   16 1
     6    2    3 2
     7    3    4 1
     8    3   20 1
     9    4   12 1
    10    4    5 1
    11    4   14 1
    12    5   10 ar
    13    5    6 ar
    14    6    7 ar
    15    6   29 1
    16    7    8 ar
    17    7   30 1
    18    8    9 ar
    19    8   31 1
    20    9   10 ar
    21    9   32 1
    22   10   11 1
    23   11   12 am
    24   11   33 1
    25   12   13 2
    26   14   15 2
    27   14   18 1
    28   15   16 1
    29   15   17 1
    30   17   34 1
    31   17   35 1
    32   18   19 3
    33   20   21 2
    34   20   22 1
    35   22   23 1
    36   23   24 1
    37   23   36 1
    38   23   37 1
    39   24   25 2
    40   24   38 1
    41   25   39 1
    42   25   40 1
@<TRIPOS>MOLECULE
ZINC01829243
   42    44     0     0     0
SMALL
USER_CHARGES

@<TRIPOS>ATOM
      1 C1         10.4881   -2.6208    2.9550 C.3       1 <0>        -0.0632
      2 O1         10.3686   -1.2468    2.5809 O.3       1 <0>        -0.2102
      3 C2          9.1113   -0.7347    2.5056 C.ar      1 <0>         0.0873
      4 C3          8.9235    0.5925    2.1481 C.ar      1 <0>        -0.1429
      5 C4          7.6469    1.1132    2.0714 C.ar      1 <0>        -0.0880
      6 C5          6.5510    0.3081    2.3519 C.ar      1 <0>         0.0134
      7 C6          6.7400   -1.0187    2.7148 C.ar      1 <0>        -0.1154
      8 C7          8.0168   -1.5396    2.7860 C.ar      1 <0>        -0.2064
      9 N1          5.2554    0.8358    2.2743 N.am      1 <0>        -0.3122
     10 C8          4.9586    1.7584    1.3377 C.2       1 <0>         0.3200
     11 O2          5.8317    2.1937    0.6170 O.2       1 <0>        -0.3391
     12 C9          3.5419    2.2493    1.1860 C.3       1 <0>        -0.2691
     13 H1          3.0366    2.2139    2.1512 H         1 <0>         0.1263
     14 C10         3.5445    3.6844    0.6600 C.3       1 <0>        -0.1650
     15 C11         2.1691    4.1678    0.3410 C.2       1 <0>         0.3021
     16 O3          1.9975    5.3676    0.3764 O.2       1 <0>        -0.3378
     17 N2          1.1131    3.4297    0.0176 N.am      1 <0>        -0.2926
     18 C12         1.1052    2.0497    0.0200 C.2       1 <0>        -0.0136
     19 N3         -0.0254    1.3833    0.0348 N.2       1 <0>        -0.1682
     20 C13        -0.0133    0.0140    0.0311 C.ar      1 <0>         0.0010
     21 C14         0.8300   -0.6775   -0.8409 C.ar      1 <0>        -0.1464
     22 C15         0.8414   -2.0569   -0.8353 C.ar      1 <0>        -0.1128
     23 C16         0.0114   -2.7553    0.0237 C.ar      1 <0>        -0.1297
     24 C17        -0.8308   -2.0765    0.8864 C.ar      1 <0>        -0.1213
     25 C18        -0.8482   -0.6971    0.8954 C.ar      1 <0>        -0.1051
     26 S1          2.6572    1.2017   -0.0048 S.3       1 <0>         0.1789
     27 H2         10.0525   -2.7674    3.9434 H         1 <0>         0.0669
     28 H3          9.9618   -3.2418    2.2302 H         1 <0>         0.0683
     29 H4         11.5412   -2.9011    2.9769 H         1 <0>         0.1092
     30 H5          9.7760    1.2187    1.9300 H         1 <0>         0.1499
     31 H6          7.5009    2.1467    1.7937 H         1 <0>         0.1676
     32 H7          5.8882   -1.6443    2.9374 H         1 <0>         0.1314
     33 H8          8.1637   -2.5727    3.0646 H         1 <0>         0.1380
     34 H9          4.5721    0.5371    2.8945 H         1 <0>         0.2353
     35 H10         3.9832    4.3373    1.4145 H         1 <0>         0.1381
     36 H11         4.1539    3.7296   -0.2427 H         1 <0>         0.1567
     37 H12         0.2956    3.8882   -0.2320 H         1 <0>         0.2619
     38 H13         1.4748   -0.1337   -1.5153 H         1 <0>         0.1418
     39 H14         1.4963   -2.5931   -1.5062 H         1 <0>         0.1348
     40 H15         0.0208   -3.8353    0.0206 H         1 <0>         0.1317
     41 H16        -1.4763   -2.6277    1.5541 H         1 <0>         0.1345
     42 H17        -1.5063   -0.1685    1.5690 H         1 <0>         0.1440
@<TRIPOS>BOND
     1    1    2 1
     2    1   27 1
     3    1   28 1
     4    1   29 1
     5    2    3 1
     6    3    8 ar
     7    3    4 ar
     8    4    5 ar
     9    4   30 1
    10    5    6 ar
    11    5   31 1
    12    6    7 ar
    13    6    9 1
    14    7    8 ar
    15    7   32 1
    16    8   33 1
    17    9   10 am
    18    9   34 1
    19   10   11 2
    20   10   12 1
    21   12   13 1
    22   12   26 1
    23   12   14 1
    24   14   15 1
    25   14   35 1
    26   14   36 1
    27   15   16 2
    28   15   17 am
    29   17   18 1
    30   17   37 1
    31   18   19 2
    32   18   26 1
    33   19   20 1
    34   20   25 ar
    35   20   21 ar
    36   21   22 ar
    37   21   38 1
    38   22   23 ar
    39   22   39 1
    40   23   24 ar
    41   23   40 1
    42   24   25 ar
    43   24   41 1
    44   25   42 1
@<TRIPOS>MOLECULE
ZINC01841772
   41    42     0     0     0
SMALL
USER_CHARGES

@<TRIPOS>ATOM
      1 C1          4.3744   -1.4059   -6.4346 C.3       1 <0>        -0.2065
      2 C2          4.2351    0.0163   -5.8879 C.3       1 <0>        -0.0155
      3 H1          3.4387    0.5345   -6.4221 H         1 <0>         0.1307
      4 C3          3.9008   -0.0404   -4.4195 C.ar      1 <0>        -0.0790
      5 C4          4.1995    1.0325   -3.6007 C.ar      1 <0>        -0.1492
      6 C5          3.8924    0.9806   -2.2539 C.ar      1 <0>        -0.0196
      7 C6          3.2864   -0.1440   -1.7260 C.ar      1 <0>        -0.7384
      8 C7          2.9925   -1.2191   -2.5438 C.ar      1 <0>        -0.0239
      9 C8          3.2960   -1.1657   -3.8914 C.ar      1 <0>        -0.1444
     10 S1          2.8950   -0.2101   -0.0093 S.o2      1 <0>         2.7383
     11 O1          3.7706    0.6999    0.6422 O.2       1 <0>        -0.9019
     12 O2          2.8291   -1.5861    0.3396 O.2       1 <0>        -0.9028
     13 C9          1.2665    0.4357    0.1790 C.ar      1 <0>        -0.7422
     14 C10         0.1751   -0.4097    0.1074 C.ar      1 <0>        -0.0283
     15 C11        -1.1028    0.0978    0.2494 C.ar      1 <0>        -0.1490
     16 C12        -1.2889    1.4490    0.4740 C.ar      1 <0>        -0.0727
     17 C13        -0.1976    2.2945    0.5452 C.ar      1 <0>        -0.1489
     18 C14         1.0801    1.7878    0.3979 C.ar      1 <0>        -0.0283
     19 N1          5.5005    0.7388   -6.0745 N.3       1 <0>        -0.1535
     20 N2          6.5096    0.1491   -5.3674 N.am      1 <0>        -0.3200
     21 C15         7.7518    0.6708   -5.4034 C.2       1 <0>         0.4121
     22 O3          8.6495    0.1464   -4.7745 O.2       1 <0>        -0.4139
     23 O4          7.9981    1.7731   -6.1363 O.3       1 <0>        -0.2693
     24 C16         9.3589    2.2795   -6.1284 C.3       1 <0>        -0.0355
     25 H2          3.4355   -1.9419   -6.2961 H         1 <0>         0.0815
     26 H3          4.6161   -1.3648   -7.4966 H         1 <0>         0.1010
     27 H4          5.1708   -1.9241   -5.9004 H         1 <0>         0.0835
     28 H5          4.6723    1.9115   -4.0133 H         1 <0>         0.1361
     29 H6          4.1257    1.8189   -1.6142 H         1 <0>         0.1536
     30 H7          2.5230   -2.0995   -2.1305 H         1 <0>         0.1529
     31 H8          3.0630   -2.0041   -4.5310 H         1 <0>         0.1449
     32 H9          0.3207   -1.4661   -0.0639 H         1 <0>         0.1491
     33 H10        -1.9557   -0.5620    0.1890 H         1 <0>         0.1377
     34 H11        -2.2871    1.8449    0.5894 H         1 <0>         0.1345
     35 H12        -0.3431    3.3509    0.7162 H         1 <0>         0.1378
     36 H13         1.9328    2.4484    0.4535 H         1 <0>         0.1493
     37 H14         5.4024    1.7108   -5.8225 H         1 <0>         0.1612
     38 H15         6.3322   -0.6450   -4.8395 H         1 <0>         0.2683
     39 H16         9.4196    3.1679   -6.7571 H         1 <0>         0.1029
     40 H17         9.6452    2.5359   -5.1085 H         1 <0>         0.0818
     41 H18        10.0333    1.5149   -6.5138 H         1 <0>         0.0856
@<TRIPOS>BOND
     1    1    2 1
     2    1   25 1
     3    1   26 1
     4    1   27 1
     5    2    3 1
     6    2    4 1
     7    2   19 1
     8    4    9 ar
     9    4    5 ar
    10    5    6 ar
    11    5   28 1
    12    6    7 ar
    13    6   29 1
    14    7    8 ar
    15    7   10 1
    16    8    9 ar
    17    8   30 1
    18    9   31 1
    19   10   11 2
    20   10   12 2
    21   10   13 1
    22   13   18 ar
    23   13   14 ar
    24   14   15 ar
    25   14   32 1
    26   15   16 ar
    27   15   33 1
    28   16   17 ar
    29   16   34 1
    30   17   18 ar
    31   17   35 1
    32   18   36 1
    33   19   20 1
    34   19   37 1
    35   20   21 am
    36   20   38 1
    37   21   22 2
    38   21   23 1
    39   23   24 1
    40   24   39 1
    41   24   40 1
    42   24   41 1
@<TRIPOS>MOLECULE
ZINC01849267
   41    43     0     0     0
SMALL
USER_CHARGES

@<TRIPOS>ATOM
      1 C1         -0.0851    5.3513    0.0321 C.3       1 <0>        -0.1812
      2 C2         -0.0592    3.8445    0.0233 C.ar      1 <0>        -0.0541
      3 C3         -1.2429    3.1326    0.0307 C.ar      1 <0>        -0.1234
      4 C4         -1.2200    1.7503    0.0174 C.ar      1 <0>        -0.1083
      5 C5         -0.0126    1.0758    0.0080 C.ar      1 <0>        -0.1282
      6 C6          1.1742    1.7818    0.0004 C.ar      1 <0>        -0.1049
      7 C7          1.1545    3.1704    0.0081 C.ar      1 <0>         0.0157
      8 N1          2.3565    3.8894    0.0009 N.am      1 <0>        -0.2229
      9 C8          2.9437    4.2342    1.1798 C.2       1 <0>         0.0994
     10 N2          4.0590    4.8939    1.2551 N.2       1 <0>        -0.1752
     11 C9          4.7211    5.3019    0.1429 C.ar      1 <0>        -0.0093
     12 C10         5.9179    6.0171    0.2258 C.ar      1 <0>        -0.0662
     13 C11         6.5560    6.4116   -0.9153 C.ar      1 <0>        -0.1716
     14 C12         6.0291    6.1103   -2.1711 C.ar      1 <0>         0.1048
     15 C13         4.8443    5.4025   -2.2823 C.ar      1 <0>        -0.1458
     16 C14         4.1828    4.9937   -1.1264 C.ar      1 <0>        -0.1304
     17 C15         2.9216    4.2401   -1.1779 C.2       1 <0>         0.3468
     18 O1          2.4056    3.9426   -2.2397 O.2       1 <0>        -0.3335
     19 N3          6.7009    6.5257   -3.3242 N.pl3     1 <0>        -0.4175
     20 C16         2.2676    3.8237    2.4626 C.3       1 <0>         0.0471
     21 O2          3.0524    4.2869    3.5930 O.3       1 <0>        -0.2356
     22 C17         2.5841    4.0008    4.8180 C.2       1 <0>         0.3007
     23 O3          1.5527    3.3838    4.9417 O.2       1 <0>        -0.3665
     24 C18         3.3449    4.4492    6.0392 C.3       1 <0>        -0.2062
     25 H1         -0.1009    5.7204   -0.9934 H         1 <0>         0.1023
     26 H2         -0.9763    5.6963    0.5563 H         1 <0>         0.0845
     27 H3          0.8033    5.7270    0.5398 H         1 <0>         0.0849
     28 H4         -2.1873    3.6564    0.0426 H         1 <0>         0.1377
     29 H5         -2.1469    1.1959    0.0184 H         1 <0>         0.1343
     30 H6          0.0021   -0.0041    0.0020 H         1 <0>         0.1368
     31 H7          2.1167    1.2546   -0.0118 H         1 <0>         0.1414
     32 H8          6.3380    6.2582    1.1911 H         1 <0>         0.1500
     33 H9          7.4809    6.9647   -0.8444 H         1 <0>         0.1337
     34 H10         4.4370    5.1699   -3.2551 H         1 <0>         0.1544
     35 H11         6.3369    6.3179   -4.1990 H         1 <0>         0.2237
     36 H12         7.5312    7.0217   -3.2496 H         1 <0>         0.2206
     37 H13         1.2720    4.2653    2.5061 H         1 <0>         0.1143
     38 H14         2.1851    2.7374    2.4983 H         1 <0>         0.1140
     39 H15         3.0011    5.4395    6.3381 H         1 <0>         0.1124
     40 H16         3.1740    3.7444    6.8529 H         1 <0>         0.1161
     41 H17         4.4098    4.4882    5.8099 H         1 <0>         0.1053
@<TRIPOS>BOND
     1    1    2 1
     2    1   25 1
     3    1   26 1
     4    1   27 1
     5    2    7 ar
     6    2    3 ar
     7    3    4 ar
     8    3   28 1
     9    4    5 ar
    10    4   29 1
    11    5    6 ar
    12    5   30 1
    13    6    7 ar
    14    6   31 1
    15    7    8 1
    16    8   17 am
    17    8    9 1
    18    9   10 2
    19    9   20 1
    20   10   11 1
    21   11   16 ar
    22   11   12 ar
    23   12   13 ar
    24   12   32 1
    25   13   14 ar
    26   13   33 1
    27   14   15 ar
    28   14   19 1
    29   15   16 ar
    30   15   34 1
    31   16   17 1
    32   17   18 2
    33   19   35 1
    34   19   36 1
    35   20   21 1
    36   20   37 1
    37   20   38 1
    38   21   22 1
    39   22   23 2
    40   22   24 1
    41   24   39 1
    42   24   40 1
    43   24   41 1
@<TRIPOS>MOLECULE
ZINC01864135
   42    43     0     0     0
SMALL
USER_CHARGES

@<TRIPOS>ATOM
      1 C1          3.5414    6.3436    0.0015 C.3       1 <0>        -0.2100
      2 C2          2.1901    5.6262    0.0105 C.3       1 <0>        -0.1635
      3 C3          2.4159    4.1130    0.0007 C.3       1 <0>        -0.0155
      4 O1          1.1537    3.4430    0.0091 O.3       1 <0>        -0.2084
      5 C4          1.1764    2.0860    0.0020 C.ar      1 <0>         0.1250
      6 C5         -0.0166    1.3728    0.0096 C.ar      1 <0>        -0.1707
      7 C6          0.0021   -0.0041    0.0020 C.ar      1 <0>        -0.0262
      8 C7          1.2228   -0.6843   -0.0133 C.ar      1 <0>        -0.1697
      9 C8          2.4200    0.0365   -0.0209 C.ar      1 <0>        -0.0677
     10 C9          2.3926    1.4132   -0.0133 C.ar      1 <0>        -0.2336
     11 C10         1.2474   -2.1597   -0.0210 C.2       1 <0>         0.3651
     12 O2          0.2044   -2.7855   -0.0140 O.2       1 <0>        -0.3074
     13 N1          2.4257   -2.8139   -0.0358 N.am      1 <0>        -0.3342
     14 N2          2.4491   -4.2147   -0.0431 N.2       1 <0>         0.0668
     15 C11         3.5845   -4.8451   -0.0574 C.2       1 <0>        -0.1210
     16 C12         3.6092   -6.3175   -0.0650 C.2       1 <0>        -0.1949
     17 C13         4.7948   -6.9998   -0.0801 C.2       1 <0>         0.0811
     18 N3          4.7832   -8.3639   -0.0869 N.am      1 <0>        -0.2899
     19 H1          5.6511   -8.8605   -0.0979 H         1 <0>         0.2717
     20 C14         3.6316   -9.0542   -0.0791 C.2       1 <0>         0.3994
     21 O3          3.6719  -10.2693   -0.0861 O.2       1 <0>        -0.3780
     22 N4          2.4351   -8.4413   -0.0643 N.am      1 <0>        -0.3413
     23 H2          1.5969   -8.9866   -0.0634 H         1 <0>         0.2819
     24 C15         2.3593   -7.0938   -0.0506 C.2       1 <0>         0.3355
     25 O4          1.2796   -6.5324   -0.0315 O.2       1 <0>        -0.2800
     26 C16         6.1025   -6.2509   -0.0895 C.3       1 <0>        -0.1895
     27 H3          4.0949    6.0646   -0.8952 H         1 <0>         0.0746
     28 H4          3.3806    7.4216    0.0084 H         1 <0>         0.0845
     29 H5          4.1116    6.0556    0.8847 H         1 <0>         0.0746
     30 H6          1.6199    5.9142   -0.8727 H         1 <0>         0.0965
     31 H7          1.6366    5.9052    0.9071 H         1 <0>         0.0966
     32 H8          2.9860    3.8250    0.8839 H         1 <0>         0.0763
     33 H9          2.9693    3.8340   -0.8959 H         1 <0>         0.0763
     34 H10        -0.9596    1.8993    0.0169 H         1 <0>         0.1515
     35 H11        -0.9253   -0.5575    0.0083 H         1 <0>         0.1647
     36 H12         3.3654   -0.4855   -0.0325 H         1 <0>         0.1206
     37 H13         3.3174    1.9711   -0.0192 H         1 <0>         0.1374
     38 H14         3.2575   -2.3149   -0.0414 H         1 <0>         0.2020
     39 H15         4.5106   -4.2895   -0.0636 H         1 <0>         0.1116
     40 H16         6.4280   -6.0752    0.9358 H         1 <0>         0.1071
     41 H17         6.8549   -6.8402   -0.6136 H         1 <0>         0.0930
     42 H18         5.9705   -5.2956   -0.5975 H         1 <0>         0.1078
@<TRIPOS>BOND
     1    1    2 1
     2    1   27 1
     3    1   28 1
     4    1   29 1
     5    2    3 1
     6    2   30 1
     7    2   31 1
     8    3    4 1
     9    3   32 1
    10    3   33 1
    11    4    5 1
    12    5   10 ar
    13    5    6 ar
    14    6    7 ar
    15    6   34 1
    16    7    8 ar
    17    7   35 1
    18    8    9 ar
    19    8   11 1
    20    9   10 ar
    21    9   36 1
    22   10   37 1
    23   11   12 2
    24   11   13 am
    25   13   14 1
    26   13   38 1
    27   14   15 2
    28   15   16 1
    29   15   39 1
    30   16   24 1
    31   16   17 2
    32   17   18 1
    33   17   26 1
    34   18   19 1
    35   18   20 am
    36   20   21 2
    37   20   22 am
    38   22   23 1
    39   22   24 am
    40   24   25 2
    41   26   40 1
    42   26   41 1
    43   26   42 1
@<TRIPOS>MOLECULE
ZINC01875861
   41    45     0     0     0
SMALL
USER_CHARGES

@<TRIPOS>ATOM
      1 C1          9.5243    6.5727    1.1771 C.3       1 <0>        -0.2001
      2 C2          8.2911    7.0024    0.3798 C.3       1 <0>        -0.1140
      3 C3          7.3347    5.8430    0.2704 C.2       1 <0>         0.1221
      4 N1          6.0032    6.0919    0.1776 N.pl3     1 <0>        -0.2334
      5 H1          5.6801    7.0065    0.1822 H         1 <0>         0.2631
      6 C4          5.1107    5.0481    0.0817 C.2       1 <0>         0.2157
      7 N2          3.8054    5.2732   -0.0052 N.2       1 <0>        -0.2857
      8 C5          2.9346    4.2319    0.0083 C.ar      1 <0>         0.0722
      9 C6          2.4749    3.6886   -1.1986 C.ar      1 <0>        -0.1344
     10 C7          1.5908    2.6327   -1.1937 C.ar      1 <0>        -0.0409
     11 C8          1.1507    2.1000    0.0149 C.ar      1 <0>        -0.1649
     12 C9          1.6101    2.6428    1.2377 C.ar      1 <0>        -0.1183
     13 C10         2.4949    3.7003    1.2334 C.ar      1 <0>        -0.0792
     14 C11         0.9534    1.8520    2.3007 C.2       1 <0>         0.3587
     15 O1          1.0940    2.0142    3.4961 O.2       1 <0>        -0.3039
     16 N3          0.1692    0.9265    1.7191 N.am      1 <0>        -0.3576
     17 C12         0.2372    1.0059    0.3784 C.2       1 <0>         0.3605
     18 O2         -0.3616    0.2940   -0.4042 O.2       1 <0>        -0.3098
     19 C13         5.6227    3.7289    0.0723 C.2       1 <0>        -0.1175
     20 C14         7.0007    3.5602    0.1660 C.2       1 <0>         0.0202
     21 N4          7.8084    4.6296    0.2620 N.2       1 <0>        -0.1959
     22 C15         7.2270    2.1074    0.1308 C.ar      1 <0>        -0.1077
     23 C16         8.3629    1.3019    0.1848 C.ar      1 <0>        -0.0537
     24 C17         8.2314   -0.0680    0.1259 C.ar      1 <0>        -0.1555
     25 C18         6.9744   -0.6441    0.0144 C.ar      1 <0>        -0.0855
     26 C19         5.8434    0.1414   -0.0396 C.ar      1 <0>        -0.1263
     27 C20         5.9535    1.5262    0.0180 C.ar      1 <0>         0.0599
     28 O3          5.0374    2.5171   -0.0131 O.3       1 <0>        -0.0489
     29 H2          9.2200    6.2573    2.1751 H         1 <0>         0.0853
     30 H3         10.0153    5.7435    0.6679 H         1 <0>         0.1045
     31 H4         10.2161    7.4113    1.2562 H         1 <0>         0.0787
     32 H5          8.5954    7.3178   -0.6182 H         1 <0>         0.1133
     33 H6          7.8001    7.8317    0.8890 H         1 <0>         0.0951
     34 H7          2.8152    4.1001   -2.1374 H         1 <0>         0.1471
     35 H8          1.2393    2.2179   -2.1269 H         1 <0>         0.1477
     36 H9          2.8477    4.1176    2.1649 H         1 <0>         0.1543
     37 H10        -0.3727    0.2842    2.2036 H         1 <0>         0.2603
     38 H11         9.3418    1.7497    0.2712 H         1 <0>         0.1461
     39 H12         9.1095   -0.6954    0.1672 H         1 <0>         0.1392
     40 H13         6.8812   -1.7191   -0.0308 H         1 <0>         0.1420
     41 H14         4.8704   -0.3192   -0.1264 H         1 <0>         0.1475
@<TRIPOS>BOND
     1    1    2 1
     2    1   29 1
     3    1   30 1
     4    1   31 1
     5    2    3 1
     6    2   32 1
     7    2   33 1
     8    3   21 2
     9    3    4 1
    10    4    5 1
    11    4    6 1
    12    6    7 2
    13    6   19 1
    14    7    8 1
    15    8   13 ar
    16    8    9 ar
    17    9   10 ar
    18    9   34 1
    19   10   11 ar
    20   10   35 1
    21   11   17 1
    22   11   12 ar
    23   12   13 ar
    24   12   14 1
    25   13   36 1
    26   14   15 2
    27   14   16 am
    28   16   17 am
    29   16   37 1
    30   17   18 2
    31   19   28 1
    32   19   20 2
    33   20   21 1
    34   20   22 1
    35   22   27 ar
    36   22   23 ar
    37   23   24 ar
    38   23   38 1
    39   24   25 ar
    40   24   39 1
    41   25   26 ar
    42   25   40 1
    43   26   27 ar
    44   26   41 1
    45   27   28 1
@<TRIPOS>MOLECULE
ZINC01893624
   40    42     0     0     0
SMALL
USER_CHARGES

@<TRIPOS>ATOM
      1 C1         -0.0609   -0.4009    0.7875 C.3       1 <0>        -0.1758
      2 C2         -0.7599    0.3760    1.8734 C.ar      1 <0>        -0.0569
      3 C3         -0.0263    0.9365    2.9033 C.ar      1 <0>        -0.1381
      4 C4         -0.6636    1.6500    3.9015 C.ar      1 <0>        -0.1054
      5 C5         -2.0357    1.8060    3.8727 C.ar      1 <0>        -0.1501
      6 C6         -2.7753    1.2448    2.8397 C.ar      1 <0>         0.0448
      7 C7         -2.1313    0.5322    1.8359 C.ar      1 <0>        -0.1109
      8 C8         -2.9291   -0.0736    0.7101 C.3       1 <0>        -0.1763
      9 N1         -4.1642    1.4012    2.8072 N.pl3     1 <0>        -0.2077
     10 C9         -4.8096    2.0139    3.8501 C.2       1 <0>         0.0910
     11 N2         -4.3035    2.4237    5.0024 N.2       1 <0>        -0.3685
     12 C10        -5.0358    3.0026    5.9283 C.2       1 <0>         0.3248
     13 O1         -4.5574    3.3767    6.9872 O.2       1 <0>        -0.2806
     14 C11        -6.4736    3.1763    5.6155 C.2       1 <0>        -0.3259
     15 C12        -7.4645    3.7303    6.3595 C.2       1 <0>         0.0140
     16 C13        -8.8614    3.6179    5.9219 C.ar      1 <0>        -0.0752
     17 C14        -9.2026    2.7494    4.8776 C.ar      1 <0>        -0.1044
     18 C15       -10.5140    2.6461    4.4694 C.ar      1 <0>        -0.1422
     19 C16       -11.5002    3.4009    5.0909 C.ar      1 <0>         0.0633
     20 C17       -11.1688    4.2680    6.1315 C.ar      1 <0>         0.0442
     21 C18        -9.8577    4.3744    6.5513 C.ar      1 <0>        -0.1138
     22 O2        -12.1382    5.0053    6.7366 O.3       1 <0>        -0.2739
     23 O3        -12.7918    3.2938    4.6842 O.3       1 <0>        -0.2758
     24 S1         -6.5345    2.4587    3.9785 S.3       1 <0>         0.1810
     25 H1         -0.0013   -1.4511    1.0730 H         1 <0>         0.0881
     26 H2          0.9449   -0.0048    0.6473 H         1 <0>         0.0842
     27 H3         -0.6207   -0.3085   -0.1432 H         1 <0>         0.0825
     28 H4          1.0467    0.8163    2.9280 H         1 <0>         0.1320
     29 H5         -0.0879    2.0861    4.7045 H         1 <0>         0.1395
     30 H6         -2.5330    2.3635    4.6527 H         1 <0>         0.2096
     31 H7         -3.2347   -1.0834    0.9837 H         1 <0>         0.0886
     32 H8         -3.8134    0.5355    0.5227 H         1 <0>         0.0639
     33 H9         -2.3161   -0.1109   -0.1905 H         1 <0>         0.0953
     34 H10        -4.6712    1.0762    2.0468 H         1 <0>         0.2613
     35 H11        -7.2253    4.2539    7.2733 H         1 <0>         0.1700
     36 H12        -8.4378    2.1612    4.3924 H         1 <0>         0.1537
     37 H13       -10.7760    1.9761    3.6639 H         1 <0>         0.1479
     38 H14        -9.6006    5.0424    7.3601 H         1 <0>         0.1502
     39 H15       -12.5490    4.5682    7.4951 H         1 <0>         0.2247
     40 H16       -13.2956    2.6125    5.1500 H         1 <0>         0.2269
@<TRIPOS>BOND
     1    1    2 1
     2    1   25 1
     3    1   26 1
     4    1   27 1
     5    2    7 ar
     6    2    3 ar
     7    3    4 ar
     8    3   28 1
     9    4    5 ar
    10    4   29 1
    11    5    6 ar
    12    5   30 1
    13    6    7 ar
    14    6    9 1
    15    7    8 1
    16    8   31 1
    17    8   32 1
    18    8   33 1
    19    9   10 1
    20    9   34 1
    21   10   24 1
    22   10   11 2
    23   11   12 1
    24   12   13 2
    25   12   14 1
    26   14   15 2
    27   14   24 1
    28   15   16 1
    29   15   35 1
    30   16   21 ar
    31   16   17 ar
    32   17   18 ar
    33   17   36 1
    34   18   19 ar
    35   18   37 1
    36   19   20 ar
    37   19   23 1
    38   20   21 ar
    39   20   22 1
    40   21   38 1
    41   22   39 1
    42   23   40 1
@<TRIPOS>MOLECULE
ZINC01901294
   40    42     0     0     0
SMALL
USER_CHARGES

@<TRIPOS>ATOM
      1 C1          0.0483    1.4501    0.0322 C.3       1 <0>        -0.0697
      2 N1          0.0394   -0.0147    0.0142 N.pl3     1 <0>        -0.1569
      3 C2          0.0456   -0.8539    1.0941 C.2       1 <0>        -0.1247
      4 N2          0.0329   -2.0741    0.6372 N.2       1 <0>        -0.0790
      5 N3          0.0191   -2.0639   -0.6480 N.2       1 <0>        -0.1047
      6 C3          0.0172   -0.8256   -1.0841 C.2       1 <0>        -0.2249
      7 S1         -0.0062   -0.3080   -2.7682 S.3       1 <0>         0.2682
      8 C4         -0.0290   -1.9195   -3.5920 C.3       1 <0>        -0.2300
      9 C5         -0.0513   -1.7199   -5.0856 C.2       1 <0>         0.2000
     10 N4          1.1100   -1.6375   -5.7742 N.pl3     1 <0>        -0.2641
     11 H1          1.9606   -1.7054   -5.3128 H         1 <0>         0.2609
     12 C6          1.0694   -1.4550   -7.1419 C.2       1 <0>         0.2148
     13 N5          2.1896   -1.3704   -7.8405 N.2       1 <0>        -0.2682
     14 C7          2.1407   -1.3027   -9.2061 C.ar      1 <0>         0.0524
     15 C8          2.1502   -0.0632   -9.8478 C.ar      1 <0>        -0.1113
     16 C9          2.1011   -0.0017  -11.2260 C.ar      1 <0>        -0.1555
     17 C10         2.0421   -1.1641  -11.9737 C.ar      1 <0>        -0.1160
     18 C11         2.0326   -2.3986  -11.3479 C.ar      1 <0>        -0.2105
     19 C12         2.0866   -2.4773   -9.9681 C.ar      1 <0>         0.0765
     20 O1          2.0820   -3.6902   -9.3529 O.3       1 <0>        -0.2046
     21 C13         2.0256   -4.8440  -10.1941 C.3       1 <0>        -0.0623
     22 N6         -0.1218   -1.3641   -7.7533 N.2       1 <0>        -0.3447
     23 C14        -1.2355   -1.4495   -7.0450 C.2       1 <0>         0.2686
     24 N7         -1.1940   -1.6318   -5.7167 N.2       1 <0>        -0.3196
     25 N8         -2.4511   -1.3554   -7.6788 N.pl3     1 <0>        -0.3534
     26 H2          1.0781    1.8073    0.0255 H         1 <0>         0.0988
     27 H3         -0.4728    1.8275   -0.8477 H         1 <0>         0.1080
     28 H4         -0.4537    1.8055    0.9321 H         1 <0>         0.1020
     29 H5          0.0590   -0.5597    2.1331 H         1 <0>         0.2137
     30 H6          0.8621   -2.4823   -3.3139 H         1 <0>         0.1395
     31 H7         -0.9176   -2.4715   -3.2859 H         1 <0>         0.1661
     32 H8          2.1962    0.8462   -9.2670 H         1 <0>         0.1357
     33 H9          2.1085    0.9575  -11.7224 H         1 <0>         0.1238
     34 H10         2.0036   -1.1080  -13.0516 H         1 <0>         0.1223
     35 H11         1.9867   -3.3019  -11.9381 H         1 <0>         0.1288
     36 H12         1.1136   -4.8146  -10.7905 H         1 <0>         0.0636
     37 H13         2.8920   -4.8543  -10.8555 H         1 <0>         0.0654
     38 H14         2.0280   -5.7433   -9.5781 H         1 <0>         0.1016
     39 H15        -2.4885   -1.2271   -8.6395 H         1 <0>         0.2495
     40 H16        -3.2718   -1.4172   -7.1654 H         1 <0>         0.2395
@<TRIPOS>BOND
     1    1    2 1
     2    1   26 1
     3    1   27 1
     4    1   28 1
     5    2    6 1
     6    2    3 1
     7    3    4 2
     8    3   29 1
     9    4    5 1
    10    5    6 2
    11    6    7 1
    12    7    8 1
    13    8    9 1
    14    8   30 1
    15    8   31 1
    16    9   24 2
    17    9   10 1
    18   10   11 1
    19   10   12 1
    20   12   13 2
    21   12   22 1
    22   13   14 1
    23   14   19 ar
    24   14   15 ar
    25   15   16 ar
    26   15   32 1
    27   16   17 ar
    28   16   33 1
    29   17   18 ar
    30   17   34 1
    31   18   19 ar
    32   18   35 1
    33   19   20 1
    34   20   21 1
    35   21   36 1
    36   21   37 1
    37   21   38 1
    38   22   23 2
    39   23   24 1
    40   23   25 1
    41   25   39 1
    42   25   40 1
@<TRIPOS>MOLECULE
ZINC01902225
   41    42     0     0     0
SMALL
USER_CHARGES

@<TRIPOS>ATOM
      1 C1          6.4244   -9.5663    1.4093 C.3       1 <0>        -0.0665
      2 O1          5.0173   -9.7326    1.2240 O.3       1 <0>        -0.1892
      3 C2          4.2893   -8.6101    0.9908 C.ar      1 <0>         0.1004
      4 C3          4.9190   -7.3738    0.9421 C.ar      1 <0>        -0.2012
      5 C4          4.1857   -6.2327    0.6997 C.ar      1 <0>        -0.0994
      6 C5          2.8034   -6.3167    0.5146 C.ar      1 <0>        -0.1346
      7 C6          2.1693   -7.5610    0.5640 C.ar      1 <0>        -0.1259
      8 C7          2.9113   -8.7018    0.8013 C.ar      1 <0>         0.0620
      9 O2          2.2973   -9.9144    0.8505 O.3       1 <0>        -0.1949
     10 C8          0.8828   -9.9340    0.6479 C.3       1 <0>        -0.0676
     11 C9          2.0155   -5.0948    0.2615 C.2       1 <0>         0.3537
     12 O3          0.8131   -5.1700    0.0956 O.2       1 <0>        -0.3512
     13 N1          2.6286   -3.8954    0.2141 N.am      1 <0>        -0.3036
     14 C10         1.8693   -2.7253    0.0866 C.2       1 <0>        -0.0095
     15 C11         2.4899   -1.5259   -0.0710 C.2       1 <0>        -0.1118
     16 C12         1.7289   -0.3312   -0.0866 C.2       1 <0>        -0.2651
     17 C13         2.1671    0.9856   -0.1396 C.2       1 <0>        -0.1628
     18 C14         1.2266    1.9850   -0.1442 C.2       1 <0>        -0.1821
     19 C15        -0.0939    1.6585   -0.0970 C.2       1 <0>        -0.3352
     20 S1         -0.0441   -0.1250   -0.0432 S.3       1 <0>         0.4439
     21 C16         0.4070   -2.7937    0.1232 C.2       1 <0>         0.3617
     22 O4         -0.1764   -2.7842    1.1918 O.2       1 <0>        -0.3259
     23 N2         -0.2932   -2.8672   -1.0261 N.am      1 <0>        -0.3095
     24 N3         -1.6583   -2.8291   -0.9978 N.3       1 <0>        -0.2114
     25 H1          6.8849  -10.5383    1.5865 H         1 <0>         0.1143
     26 H2          6.8579   -9.1164    0.5161 H         1 <0>         0.0674
     27 H3          6.6039   -8.9175    2.2665 H         1 <0>         0.0691
     28 H4          5.9867   -7.3068    1.0898 H         1 <0>         0.1448
     29 H5          4.6788   -5.2727    0.6575 H         1 <0>         0.1251
     30 H6          1.1017   -7.6306    0.4166 H         1 <0>         0.1674
     31 H7          0.5208  -10.9601    0.7124 H         1 <0>         0.1124
     32 H8          0.3977   -9.3288    1.4138 H         1 <0>         0.0733
     33 H9          0.6511   -9.5281   -0.3368 H         1 <0>         0.0691
     34 H10         3.5956   -3.8426    0.2683 H         1 <0>         0.2391
     35 H11         3.5631   -1.4841   -0.1844 H         1 <0>         0.1411
     36 H12         3.2213    1.2173   -0.1760 H         1 <0>         0.1370
     37 H13         1.5312    3.0204   -0.1851 H         1 <0>         0.1368
     38 H14        -0.9535    2.3123   -0.0969 H         1 <0>         0.1834
     39 H15         0.1724   -2.9472   -1.8733 H         1 <0>         0.2249
     40 H16        -2.0412   -2.8935   -1.9292 H         1 <0>         0.1531
     41 H17        -2.0282   -3.5560   -0.4038 H         1 <0>         0.1673
@<TRIPOS>BOND
     1    1    2 1
     2    1   25 1
     3    1   26 1
     4    1   27 1
     5    2    3 1
     6    3    8 ar
     7    3    4 ar
     8    4    5 ar
     9    4   28 1
    10    5    6 ar
    11    5   29 1
    12    6    7 ar
    13    6   11 1
    14    7    8 ar
    15    7   30 1
    16    8    9 1
    17    9   10 1
    18   10   31 1
    19   10   32 1
    20   10   33 1
    21   11   12 2
    22   11   13 am
    23   13   14 1
    24   13   34 1
    25   14   15 2
    26   14   21 1
    27   15   16 1
    28   15   35 1
    29   16   20 1
    30   16   17 2
    31   17   18 1
    32   17   36 1
    33   18   19 2
    34   18   37 1
    35   19   20 1
    36   19   38 1
    37   21   22 2
    38   21   23 am
    39   23   24 1
    40   23   39 1
    41   24   40 1
    42   24   41 1
@<TRIPOS>MOLECULE
ZINC01921207
   40    42     0     0     0
SMALL
USER_CHARGES

@<TRIPOS>ATOM
      1 C1          4.6574    5.2039   -0.4605 C.ar      1 <0>        -0.1142
      2 C2          3.6884    5.2939   -1.4428 C.ar      1 <0>        -0.1274
      3 C3          2.5150    4.5748   -1.3254 C.ar      1 <0>        -0.1186
      4 C4          2.3088    3.7613   -0.2192 C.ar      1 <0>         0.0354
      5 C5          3.2811    3.6779    0.7686 C.ar      1 <0>        -0.0931
      6 C6          4.4549    4.3946    0.6424 C.ar      1 <0>        -0.1216
      7 N1          1.1196    3.0306   -0.0972 N.am      1 <0>        -0.2203
      8 C7          0.0029    3.6272    0.4392 C.2       1 <0>         0.2220
      9 C8         -1.1511    2.9086    0.5545 C.2       1 <0>        -0.2854
     10 C9         -1.1707    1.5727    0.1152 C.2       1 <0>         0.3459
     11 O1         -2.1917    0.9129    0.2038 O.2       1 <0>        -0.3400
     12 N2         -0.0519    1.0251   -0.3992 N.am      1 <0>        -0.3407
     13 H1         -0.0610    0.0729   -0.7046 H         1 <0>         0.2800
     14 C10         1.0773    1.7490   -0.5052 C.2       1 <0>         0.4059
     15 O2          2.0745    1.2373   -0.9764 O.2       1 <0>        -0.3579
     16 N3          0.0491    4.9401    0.8574 N.am      1 <0>        -0.3528
     17 C11         0.2937    5.2271    2.1513 C.2       1 <0>         0.3268
     18 O3          0.5555    4.3360    2.9309 O.2       1 <0>        -0.3063
     19 C12         0.2419    6.6553    2.6292 C.3       1 <0>        -0.3024
     20 S1          0.4249    6.6963    4.4335 S.3       1 <0>         0.1313
     21 C13         0.3422    8.4615    4.8431 C.3       1 <0>        -0.1853
     22 C14         0.4832    8.6386    6.3330 C.2       1 <0>        -0.0491
     23 C15         1.6395    8.8077    6.9991 C.2       1 <0>        -0.1875
     24 C16         1.3091    8.9326    8.3681 C.2       1 <0>        -0.2214
     25 C17        -0.0294    8.8324    8.4566 C.2       1 <0>        -0.0862
     26 O4         -0.5248    8.6602    7.2202 O.3       1 <0>        -0.0487
     27 H2          5.5744    5.7666   -0.5549 H         1 <0>         0.1352
     28 H3          3.8494    5.9268   -2.3030 H         1 <0>         0.1364
     29 H4          1.7589    4.6449   -2.0933 H         1 <0>         0.1358
     30 H5          3.1214    3.0497    1.6325 H         1 <0>         0.1556
     31 H6          5.2136    4.3264    1.4080 H         1 <0>         0.1415
     32 H7         -2.0382    3.3605    0.9730 H         1 <0>         0.1850
     33 H8         -0.0945    5.6574    0.2203 H         1 <0>         0.2454
     34 H9          1.0513    7.2221    2.1690 H         1 <0>         0.1184
     35 H10        -0.7150    7.0971    2.3510 H         1 <0>         0.1159
     36 H11         1.1495    8.9903    4.3363 H         1 <0>         0.1134
     37 H12        -0.6168    8.8653    4.5183 H         1 <0>         0.1106
     38 H13         2.6303    8.8410    6.5705 H         1 <0>         0.1590
     39 H14         1.9990    9.0799    9.1859 H         1 <0>         0.1584
     40 H15        -0.6079    8.8865    9.3670 H         1 <0>         0.2009
@<TRIPOS>BOND
     1    1    6 ar
     2    1    2 ar
     3    1   27 1
     4    2    3 ar
     5    2   28 1
     6    3    4 ar
     7    3   29 1
     8    4    5 ar
     9    4    7 1
    10    5    6 ar
    11    5   30 1
    12    6   31 1
    13    7   14 am
    14    7    8 1
    15    8    9 2
    16    8   16 1
    17    9   10 1
    18    9   32 1
    19   10   11 2
    20   10   12 am
    21   12   13 1
    22   12   14 am
    23   14   15 2
    24   16   17 am
    25   16   33 1
    26   17   18 2
    27   17   19 1
    28   19   20 1
    29   19   34 1
    30   19   35 1
    31   20   21 1
    32   21   22 1
    33   21   36 1
    34   21   37 1
    35   22   26 1
    36   22   23 2
    37   23   24 1
    38   23   38 1
    39   24   25 2
    40   24   39 1
    41   25   26 1
    42   25   40 1
@<TRIPOS>MOLECULE
ZINC01921257
   43    45     0     0     0
SMALL
USER_CHARGES

@<TRIPOS>ATOM
      1 C1          2.3455    4.0165   -0.7045 C.3       1 <0>        -0.1781
      2 C2          1.0679    3.2330   -0.5469 C.ar      1 <0>        -0.0595
      3 C3          0.7414    2.6851    0.6800 C.ar      1 <0>        -0.1233
      4 C4         -0.4286    1.9661    0.8275 C.ar      1 <0>        -0.0887
      5 C5         -1.2747    1.7891   -0.2591 C.ar      1 <0>         0.0279
      6 C6         -0.9471    2.3457   -1.4883 C.ar      1 <0>        -0.1146
      7 C7          0.2247    3.0629   -1.6297 C.ar      1 <0>        -0.1288
      8 N1         -2.4594    1.0553   -0.1142 N.am      1 <0>        -0.2189
      9 C8         -3.6422    1.7099    0.1372 C.2       1 <0>         0.2225
     10 C9         -4.7914    0.9878    0.2766 C.2       1 <0>        -0.2866
     11 C10        -4.7368   -0.4125    0.1592 C.2       1 <0>         0.3461
     12 O1         -5.7508   -1.0781    0.2796 O.2       1 <0>        -0.3408
     13 N2         -3.5563   -1.0139   -0.0877 N.am      1 <0>        -0.3408
     14 H1         -3.5143   -2.0098   -0.1678 H         1 <0>         0.2797
     15 C11        -2.4338   -0.2853   -0.2273 C.2       1 <0>         0.4057
     16 O2         -1.3797   -0.8471   -0.4544 O.2       1 <0>        -0.3582
     17 N3         -3.6666    3.0839    0.2479 N.am      1 <0>        -0.3524
     18 C12        -3.5882    3.6636    1.4621 C.2       1 <0>         0.3271
     19 O3         -3.4128    2.9818    2.4493 O.2       1 <0>        -0.3064
     20 C13        -3.7186    5.1593    1.5928 C.3       1 <0>        -0.3024
     21 S1         -3.7609    5.6114    3.3490 S.3       1 <0>         0.1313
     22 C14        -3.9181    7.4185    3.3333 C.3       1 <0>        -0.1854
     23 C15        -3.9651    7.9310    4.7497 C.2       1 <0>        -0.0489
     24 C16        -2.9026    8.2931    5.4909 C.2       1 <0>        -0.1877
     25 C17        -3.4017    8.7080    6.7470 C.2       1 <0>        -0.2215
     26 C18        -4.7393    8.5746    6.6982 C.2       1 <0>        -0.0862
     27 O4         -5.0754    8.1091    5.4841 O.3       1 <0>        -0.0487
     28 H2          3.1514    3.3427   -0.9952 H         1 <0>         0.0945
     29 H3          2.2126    4.7772   -1.4738 H         1 <0>         0.0822
     30 H4          2.5964    4.4964    0.2414 H         1 <0>         0.0851
     31 H5          1.4020    2.8193    1.5237 H         1 <0>         0.1419
     32 H6         -0.6830    1.5382    1.7859 H         1 <0>         0.1553
     33 H7         -1.6052    2.2132   -2.3343 H         1 <0>         0.1355
     34 H8          0.4826    3.4917   -2.5868 H         1 <0>         0.1370
     35 H9         -5.7298    1.4847    0.4740 H         1 <0>         0.1847
     36 H10        -3.7402    3.6334   -0.5480 H         1 <0>         0.2453
     37 H11        -2.8664    5.6415    1.1139 H         1 <0>         0.1186
     38 H12        -4.6396    5.4872    1.1109 H         1 <0>         0.1158
     39 H13        -3.0617    7.8532    2.8179 H         1 <0>         0.1134
     40 H14        -4.8350    7.6989    2.8149 H         1 <0>         0.1106
     41 H15        -1.8670    8.2706    5.1854 H         1 <0>         0.1590
     42 H16        -2.8204    9.0635    7.5850 H         1 <0>         0.1583
     43 H17        -5.4268    8.8074    7.4979 H         1 <0>         0.2008
@<TRIPOS>BOND
     1    1    2 1
     2    1   28 1
     3    1   29 1
     4    1   30 1
     5    2    7 ar
     6    2    3 ar
     7    3    4 ar
     8    3   31 1
     9    4    5 ar
    10    4   32 1
    11    5    6 ar
    12    5    8 1
    13    6    7 ar
    14    6   33 1
    15    7   34 1
    16    8   15 am
    17    8    9 1
    18    9   10 2
    19    9   17 1
    20   10   11 1
    21   10   35 1
    22   11   12 2
    23   11   13 am
    24   13   14 1
    25   13   15 am
    26   15   16 2
    27   17   18 am
    28   17   36 1
    29   18   19 2
    30   18   20 1
    31   20   21 1
    32   20   37 1
    33   20   38 1
    34   21   22 1
    35   22   23 1
    36   22   39 1
    37   22   40 1
    38   23   27 1
    39   23   24 2
    40   24   25 1
    41   24   41 1
    42   25   26 2
    43   25   42 1
    44   26   27 1
    45   26   43 1
@<TRIPOS>MOLECULE
ZINC01921444
   43    44     0     0     0
SMALL
USER_CHARGES

@<TRIPOS>ATOM
      1 C1         -6.4477   -1.4368   -1.7682 C.3       1 <0>        -0.2103
      2 C2         -5.5310   -2.3140   -2.6232 C.3       1 <0>        -0.2186
      3 C3         -6.1618   -2.5187   -4.0020 C.3       1 <0>        -0.1914
      4 S1         -3.9195   -1.5025   -2.8101 S.3       1 <0>         0.1058
      5 C4         -3.2457   -1.4718   -1.1261 C.3       1 <0>        -0.2946
      6 C5         -1.8898   -0.8143   -1.1394 C.2       1 <0>         0.3247
      7 O1         -1.4240   -0.4065   -2.1820 O.2       1 <0>        -0.3107
      8 N1         -1.1950   -0.6794    0.0075 N.am      1 <0>        -0.3517
      9 C6         -0.0026    0.0128    0.0138 C.2       1 <0>         0.2323
     10 C7          0.0039    1.3712    0.1427 C.2       1 <0>        -0.2918
     11 C8          1.2348    2.0511    0.1464 C.2       1 <0>         0.3482
     12 O2          1.2650    3.2644    0.2599 O.2       1 <0>        -0.3458
     13 N2          2.3808    1.3528    0.0232 N.am      1 <0>        -0.3400
     14 H1          3.2574    1.8340    0.0255 H         1 <0>         0.2783
     15 C9          2.3551    0.0135   -0.1029 C.2       1 <0>         0.4096
     16 O3          3.4005   -0.5978   -0.2124 O.2       1 <0>        -0.3618
     17 N3          1.1900   -0.6596   -0.1092 N.am      1 <0>        -0.2057
     18 C10         1.1924   -2.0560   -0.2417 C.ar      1 <0>         0.0049
     19 C11         1.2305   -2.6350   -1.5017 C.ar      1 <0>        -0.0573
     20 C12         1.2372   -4.0109   -1.6296 C.ar      1 <0>        -0.1607
     21 C13         1.1962   -4.8136   -0.5042 C.ar      1 <0>        -0.0749
     22 C14         1.1527   -4.2439    0.7544 C.ar      1 <0>        -0.2216
     23 C15         1.1506   -2.8650    0.8914 C.ar      1 <0>         0.1048
     24 O4          1.1083   -2.3031    2.1287 O.3       1 <0>        -0.2113
     25 C16         1.0669   -3.1944    3.2449 C.3       1 <0>        -0.0645
     26 H2         -7.4161   -1.9244   -1.6559 H         1 <0>         0.0807
     27 H3         -5.9983   -1.2910   -0.7859 H         1 <0>         0.0669
     28 H4         -6.5818   -0.4701   -2.2535 H         1 <0>         0.0949
     29 H5         -5.3969   -3.2807   -2.1379 H         1 <0>         0.0999
     30 H6         -5.5088   -3.1436   -4.6112 H         1 <0>         0.0884
     31 H7         -7.1302   -3.0063   -3.8898 H         1 <0>         0.0846
     32 H8         -6.2959   -1.5520   -4.4874 H         1 <0>         0.0902
     33 H9         -3.1512   -2.4920   -0.7540 H         1 <0>         0.1151
     34 H10        -3.9162   -0.9089   -0.4767 H         1 <0>         0.1185
     35 H11        -1.5338   -1.0692    0.8286 H         1 <0>         0.2470
     36 H12        -0.9234    1.9169    0.2360 H         1 <0>         0.1829
     37 H13         1.2589   -2.0105   -2.3824 H         1 <0>         0.1601
     38 H14         1.2707   -4.4605   -2.6110 H         1 <0>         0.1427
     39 H15         1.1977   -5.8885   -0.6091 H         1 <0>         0.1356
     40 H16         1.1200   -4.8736    1.6312 H         1 <0>         0.1410
     41 H17         0.1774   -3.8206    3.1770 H         1 <0>         0.0644
     42 H18         1.9562   -3.8247    3.2397 H         1 <0>         0.0776
     43 H19         1.0357   -2.6178    4.1693 H         1 <0>         0.1133
@<TRIPOS>BOND
     1    1    2 1
     2    1   26 1
     3    1   27 1
     4    1   28 1
     5    2    3 1
     6    2    4 1
     7    2   29 1
     8    3   30 1
     9    3   31 1
    10    3   32 1
    11    4    5 1
    12    5    6 1
    13    5   33 1
    14    5   34 1
    15    6    7 2
    16    6    8 am
    17    8    9 1
    18    8   35 1
    19    9   17 1
    20    9   10 2
    21   10   11 1
    22   10   36 1
    23   11   12 2
    24   11   13 am
    25   13   14 1
    26   13   15 am
    27   15   16 2
    28   15   17 am
    29   17   18 1
    30   18   23 ar
    31   18   19 ar
    32   19   20 ar
    33   19   37 1
    34   20   21 ar
    35   20   38 1
    36   21   22 ar
    37   21   39 1
    38   22   23 ar
    39   22   40 1
    40   23   24 1
    41   24   25 1
    42   25   41 1
    43   25   42 1
    44   25   43 1
@<TRIPOS>MOLECULE
ZINC01921497
   44    46     0     0     0
SMALL
USER_CHARGES

@<TRIPOS>ATOM
      1 C1          2.4918    4.4850   -1.9852 C.3       1 <0>        -0.0645
      2 O1          2.2176    3.9464   -0.6903 O.3       1 <0>        -0.2064
      3 C2          1.0665    3.2371   -0.5479 C.ar      1 <0>         0.1113
      4 C3          0.7390    2.6864    0.6826 C.ar      1 <0>        -0.1536
      5 C4         -0.4299    1.9660    0.8278 C.ar      1 <0>        -0.0570
      6 C5         -1.2750    1.7883   -0.2593 C.ar      1 <0>        -0.0070
      7 C6         -0.9494    2.3440   -1.4892 C.ar      1 <0>        -0.0785
      8 C7          0.2200    3.0638   -1.6334 C.ar      1 <0>        -0.2227
      9 N1         -2.4599    1.0520   -0.1137 N.am      1 <0>        -0.2151
     10 C8         -3.6433    1.7048    0.1376 C.2       1 <0>         0.2222
     11 C9         -4.7916    0.9812    0.2775 C.2       1 <0>        -0.2875
     12 C10        -4.7351   -0.4190    0.1605 C.2       1 <0>         0.3461
     13 O2         -5.7482   -1.0860    0.2813 O.2       1 <0>        -0.3412
     14 N2         -3.5538   -1.0188   -0.0864 N.am      1 <0>        -0.3409
     15 H1         -3.5103   -2.0147   -0.1662 H         1 <0>         0.2796
     16 C11        -2.4324   -0.2886   -0.2264 C.2       1 <0>         0.4048
     17 O3         -1.3775   -0.8489   -0.4539 O.2       1 <0>        -0.3585
     18 N3         -3.6696    3.0789    0.2479 N.am      1 <0>        -0.3523
     19 C12        -3.5918    3.6592    1.4618 C.2       1 <0>         0.3270
     20 O4         -3.4153    2.9779    2.4492 O.2       1 <0>        -0.3064
     21 C13        -3.7243    5.1547    1.5920 C.3       1 <0>        -0.3025
     22 S1         -3.7669    5.6073    3.3481 S.3       1 <0>         0.1320
     23 C14        -3.9267    7.4142    3.3318 C.3       1 <0>        -0.1854
     24 C15        -3.9742    7.9271    4.7481 C.2       1 <0>        -0.0492
     25 C16        -2.9121    8.2909    5.4890 C.2       1 <0>        -0.1873
     26 C17        -3.4115    8.7056    6.7450 C.2       1 <0>        -0.2214
     27 C18        -4.7490    8.5703    6.6965 C.2       1 <0>        -0.0864
     28 O5         -5.0846    8.1039    5.4826 O.3       1 <0>        -0.0490
     29 H2          3.4376    5.0262   -1.9608 H         1 <0>         0.1129
     30 H3          2.5562    3.6735   -2.7101 H         1 <0>         0.0729
     31 H4          1.6907    5.1660   -2.2725 H         1 <0>         0.0659
     32 H5          1.3987    2.8210    1.5271 H         1 <0>         0.1553
     33 H6         -0.6846    1.5371    1.7857 H         1 <0>         0.1598
     34 H7         -1.6083    2.2092   -2.3342 H         1 <0>         0.1364
     35 H8          0.4756    3.4924   -2.5912 H         1 <0>         0.1413
     36 H9         -5.7307    1.4768    0.4748 H         1 <0>         0.1846
     37 H10        -3.7441    3.6280   -0.5483 H         1 <0>         0.2446
     38 H11        -2.8729    5.6379    1.1128 H         1 <0>         0.1184
     39 H12        -4.6459    5.4811    1.1102 H         1 <0>         0.1154
     40 H13        -3.0710    7.8500    2.8161 H         1 <0>         0.1135
     41 H14        -4.8441    7.6932    2.8134 H         1 <0>         0.1102
     42 H15        -1.8765    8.2698    5.1833 H         1 <0>         0.1594
     43 H16        -2.8306    9.0622    7.5827 H         1 <0>         0.1583
     44 H17        -5.4367    8.8024    7.4962 H         1 <0>         0.2007
@<TRIPOS>BOND
     1    1    2 1
     2    1   29 1
     3    1   30 1
     4    1   31 1
     5    2    3 1
     6    3    8 ar
     7    3    4 ar
     8    4    5 ar
     9    4   32 1
    10    5    6 ar
    11    5   33 1
    12    6    7 ar
    13    6    9 1
    14    7    8 ar
    15    7   34 1
    16    8   35 1
    17    9   16 am
    18    9   10 1
    19   10   11 2
    20   10   18 1
    21   11   12 1
    22   11   36 1
    23   12   13 2
    24   12   14 am
    25   14   15 1
    26   14   16 am
    27   16   17 2
    28   18   19 am
    29   18   37 1
    30   19   20 2
    31   19   21 1
    32   21   22 1
    33   21   38 1
    34   21   39 1
    35   22   23 1
    36   23   24 1
    37   23   40 1
    38   23   41 1
    39   24   28 1
    40   24   25 2
    41   25   26 1
    42   25   42 1
    43   26   27 2
    44   26   43 1
    45   27   28 1
    46   27   44 1
@<TRIPOS>MOLECULE
ZINC01921555
   45    47     0     0     0
SMALL
USER_CHARGES

@<TRIPOS>ATOM
      1 C1         -2.6135    4.5052   -3.7084 C.3       1 <0>        -0.1915
      2 C2         -1.6104    3.8816   -2.7359 C.3       1 <0>        -0.2181
      3 C3         -1.9404    4.3246   -1.3091 C.3       1 <0>        -0.2105
      4 S1         -1.7065    2.0734   -2.8451 S.3       1 <0>         0.1050
      5 C4         -0.3705    1.4968   -1.7618 C.3       1 <0>        -0.2948
      6 C5         -0.3390   -0.0099   -1.7615 C.2       1 <0>         0.3250
      7 O1         -1.1388   -0.6332   -2.4264 O.2       1 <0>        -0.3079
      8 N1          0.5782   -0.6646   -1.0222 N.am      1 <0>        -0.3528
      9 C6          0.5433   -2.0405   -0.9406 C.2       1 <0>         0.2205
     10 C7          1.1470   -2.8021   -1.8981 C.2       1 <0>        -0.2831
     11 C8          1.0954   -4.2033   -1.7893 C.2       1 <0>         0.3449
     12 O2          1.6280   -4.9039   -2.6327 O.2       1 <0>        -0.3401
     13 N2          0.4540   -4.7665   -0.7465 N.am      1 <0>        -0.3412
     14 H1          0.4164   -5.7626   -0.6668 H         1 <0>         0.2799
     15 C9         -0.1362   -3.9996    0.1883 C.2       1 <0>         0.4046
     16 O3         -0.7101   -4.5277    1.1210 O.2       1 <0>        -0.3555
     17 N3         -0.0954   -2.6569    0.1097 N.am      1 <0>        -0.2185
     18 C10        -0.7113   -1.8839    1.0986 C.ar      1 <0>         0.0365
     19 C11        -2.0546   -1.5887    1.0140 C.ar      1 <0>        -0.0824
     20 C12        -2.6788   -0.8257    1.9964 C.ar      1 <0>        -0.1256
     21 C13        -1.9797   -0.3400    3.0592 C.ar      1 <0>        -0.0996
     22 C14        -0.6066   -0.6131    3.1794 C.ar      1 <0>        -0.0371
     23 C15         0.0383   -1.3944    2.1889 C.ar      1 <0>        -0.0252
     24 C16         1.4100   -1.6671    2.3109 C.ar      1 <0>        -0.1280
     25 C17         2.1022   -1.1780    3.3764 C.ar      1 <0>        -0.1133
     26 C18         1.4688   -0.4095    4.3512 C.ar      1 <0>        -0.1264
     27 C19         0.1406   -0.1255    4.2657 C.ar      1 <0>        -0.1091
     28 H2         -3.6209    4.1786   -3.4504 H         1 <0>         0.0892
     29 H3         -2.5557    5.5917   -3.6429 H         1 <0>         0.0848
     30 H4         -2.3784    4.1896   -4.7249 H         1 <0>         0.0896
     31 H5         -0.6030    4.2081   -2.9939 H         1 <0>         0.1013
     32 H6         -2.9478    3.9981   -1.0511 H         1 <0>         0.0933
     33 H7         -1.2258    3.8803   -0.6163 H         1 <0>         0.0673
     34 H8         -1.8827    5.4111   -1.2435 H         1 <0>         0.0811
     35 H9         -0.5440    1.8568   -0.7477 H         1 <0>         0.1198
     36 H10         0.5830    1.8801   -2.1253 H         1 <0>         0.1162
     37 H11         1.2629   -0.1678   -0.5476 H         1 <0>         0.2472
     38 H12         1.6568   -2.3356   -2.7280 H         1 <0>         0.1861
     39 H13        -2.6306   -1.9577    0.1783 H         1 <0>         0.1538
     40 H14        -3.7338   -0.6108    1.9116 H         1 <0>         0.1406
     41 H15        -2.4802    0.2543    3.8093 H         1 <0>         0.1375
     42 H16         1.9137   -2.2616    1.5631 H         1 <0>         0.1343
     43 H17         3.1574   -1.3893    3.4679 H         1 <0>         0.1329
     44 H18         2.0404   -0.0339    5.1870 H         1 <0>         0.1327
     45 H19        -0.3371    0.4711    5.0288 H         1 <0>         0.1366
@<TRIPOS>BOND
     1    1    2 1
     2    1   28 1
     3    1   29 1
     4    1   30 1
     5    2    3 1
     6    2    4 1
     7    2   31 1
     8    3   32 1
     9    3   33 1
    10    3   34 1
    11    4    5 1
    12    5    6 1
    13    5   35 1
    14    5   36 1
    15    6    7 2
    16    6    8 am
    17    8    9 1
    18    8   37 1
    19    9   17 1
    20    9   10 2
    21   10   11 1
    22   10   38 1
    23   11   12 2
    24   11   13 am
    25   13   14 1
    26   13   15 am
    27   15   16 2
    28   15   17 am
    29   17   18 1
    30   18   23 ar
    31   18   19 ar
    32   19   20 ar
    33   19   39 1
    34   20   21 ar
    35   20   40 1
    36   21   22 ar
    37   21   41 1
    38   22   27 ar
    39   22   23 ar
    40   23   24 ar
    41   24   25 ar
    42   24   42 1
    43   25   26 ar
    44   25   43 1
    45   26   27 ar
    46   26   44 1
    47   27   45 1
@<TRIPOS>MOLECULE
ZINC01921716
   43    45     0     0     0
SMALL
USER_CHARGES

@<TRIPOS>ATOM
      1 C1         -1.5134    1.6670    1.4466 C.3       1 <0>        -0.1696
      2 C2         -0.2195    0.8945    1.4535 C.ar      1 <0>         0.0855
      3 C3          0.8590    1.3393    2.2021 C.ar      1 <0>        -0.2968
      4 C4          2.0327    0.6023    2.1761 C.ar      1 <0>         0.0827
      5 N1          2.0882   -0.4968    1.4423 N.ar      1 <0>        -0.2662
      6 C5          1.0389   -0.8947    0.7380 C.ar      1 <0>         0.2191
      7 N2         -0.0974   -0.2132    0.7411 N.ar      1 <0>        -0.2698
      8 N3          1.1318   -2.0509   -0.0193 N.pl3     1 <0>        -0.2725
      9 C6          2.3549   -2.7195   -0.1271 C.ar      1 <0>         0.1388
     10 C7          3.5432   -2.0002   -0.1331 C.ar      1 <0>        -0.1531
     11 C8          4.7499   -2.6642   -0.2345 C.ar      1 <0>        -0.0172
     12 C9          4.7756   -4.0427   -0.3409 C.ar      1 <0>        -0.7889
     13 C10         3.5942   -4.7614   -0.3405 C.ar      1 <0>        -0.0046
     14 C11         2.3843   -4.1041   -0.2342 C.ar      1 <0>        -0.1925
     15 S1          6.3171   -4.8853   -0.4767 S.o2      1 <0>         2.7630
     16 O1          7.2984   -4.0316    0.0955 O.2       1 <0>        -0.9137
     17 O2          6.0975   -6.2109   -0.0142 O.2       1 <0>        -0.9149
     18 N4          6.6721   -4.9997   -2.0902 N.pl3     1 <0>        -0.8828
     19 C12         6.9280   -3.7872   -2.8716 C.3       1 <0>         0.0800
     20 C13         7.5751   -4.1604   -4.1805 C.2       1 <0>        -0.0745
     21 C14         6.9281   -4.4447   -5.3250 C.2       1 <0>        -0.1979
     22 C15         7.9166   -4.7382   -6.2923 C.2       1 <0>        -0.2240
     23 C16         9.1085   -4.6158   -5.6810 C.2       1 <0>        -0.0886
     24 O3          8.8957   -4.2600   -4.4035 O.3       1 <0>        -0.0459
     25 C17         3.2306    1.0475    2.9746 C.3       1 <0>        -0.1708
     26 H1         -2.1590    1.3017    2.2452 H         1 <0>         0.1003
     27 H2         -1.3055    2.7255    1.6029 H         1 <0>         0.0897
     28 H3         -2.0117    1.5325    0.4865 H         1 <0>         0.1034
     29 H4          0.7865    2.2408    2.7925 H         1 <0>         0.1475
     30 H5          0.3483   -2.3967   -0.4747 H         1 <0>         0.2589
     31 H6          3.5236   -0.9232   -0.0549 H         1 <0>         0.1632
     32 H7          5.6744   -2.1058   -0.2347 H         1 <0>         0.1493
     33 H8          3.6177   -5.8379   -0.4238 H         1 <0>         0.1512
     34 H9          1.4620   -4.6660   -0.2340 H         1 <0>         0.1382
     35 H10         6.7105   -5.8695   -2.5179 H         1 <0>         0.2508
     36 H11         5.9860   -3.2742   -3.0653 H         1 <0>         0.0957
     37 H12         7.5925   -3.1283   -2.3127 H         1 <0>         0.1151
     38 H13         5.8587   -4.4486   -5.4760 H         1 <0>         0.1572
     39 H14         7.7472   -5.0092   -7.3239 H         1 <0>         0.1575
     40 H15        10.0732   -4.7730   -6.1405 H         1 <0>         0.2005
     41 H16         3.8488    1.7069    2.3653 H         1 <0>         0.0985
     42 H17         2.8964    1.5820    3.8638 H         1 <0>         0.0905
     43 H18         3.8133    0.1757    3.2723 H         1 <0>         0.1078
@<TRIPOS>BOND
     1    1    2 1
     2    1   26 1
     3    1   27 1
     4    1   28 1
     5    2    7 ar
     6    2    3 ar
     7    3    4 ar
     8    3   29 1
     9    4    5 ar
    10    4   25 1
    11    5    6 ar
    12    6    7 ar
    13    6    8 1
    14    8    9 1
    15    8   30 1
    16    9   14 ar
    17    9   10 ar
    18   10   11 ar
    19   10   31 1
    20   11   12 ar
    21   11   32 1
    22   12   13 ar
    23   12   15 1
    24   13   14 ar
    25   13   33 1
    26   14   34 1
    27   15   16 2
    28   15   17 2
    29   15   18 1
    30   18   19 1
    31   18   35 1
    32   19   20 1
    33   19   36 1
    34   19   37 1
    35   20   24 1
    36   20   21 2
    37   21   22 1
    38   21   38 1
    39   22   23 2
    40   22   39 1
    41   23   24 1
    42   23   40 1
    43   25   41 1
    44   25   42 1
    45   25   43 1
@<TRIPOS>MOLECULE
ZINC01921806
   37    39     0     0     0
SMALL
USER_CHARGES

@<TRIPOS>ATOM
      1 C1         -5.8088    3.5585    0.0775 C.3       1 <0>        -0.3013
      2 S1         -5.1616    1.8641    0.0575 S.3       1 <0>         0.1974
      3 C2         -3.4125    2.0761    0.0388 C.2       1 <0>        -0.1690
      4 N1         -2.7749    3.2215    0.0399 N.2       1 <0>        -0.0935
      5 N2         -1.4002    2.9515    0.0273 N.2       1 <0>        -0.1582
      6 C3         -1.2430    1.6508    0.0106 C.2       1 <0>         0.1371
      7 N3         -2.4819    1.0752    0.0207 N.pl3     1 <0>        -0.1993
      8 C4         -2.7635   -0.3624    0.0129 C.3       1 <0>        -0.0412
      9 C5         -2.8440   -0.8662    1.4309 C.2       1 <0>         0.2718
     10 O1         -2.6821   -0.0998    2.3569 O.2       1 <0>        -0.3166
     11 N4         -3.0960   -2.1684    1.6701 N.am      1 <0>        -0.3211
     12 C6         -3.0772   -2.6541    2.9788 C.ar      1 <0>         0.0540
     13 C7         -3.5106   -1.8626    4.0205 C.ar      1 <0>        -0.1213
     14 C8         -3.4955   -2.3369    5.3287 C.ar      1 <0>        -0.1073
     15 C9         -3.0545   -3.5927    5.6161 C.ar      1 <0>        -0.1297
     16 C10        -2.6045   -4.4318    4.5828 C.ar      1 <0>        -0.0227
     17 C11        -2.6198   -3.9619    3.2463 C.ar      1 <0>        -0.0490
     18 C12        -2.1649   -4.7994    2.2157 C.ar      1 <0>        -0.1267
     19 C13        -1.7246   -6.0534    2.5111 C.ar      1 <0>        -0.1203
     20 C14        -1.7140   -6.5186    3.8247 C.ar      1 <0>        -0.1270
     21 C15        -2.1431   -5.7327    4.8496 C.ar      1 <0>        -0.1091
     22 N5         -0.0293    0.9756   -0.0080 N.pl3     1 <0>        -0.3971
     23 H1         -5.4688    4.0879   -0.8126 H         1 <0>         0.1124
     24 H2         -6.8984    3.5311    0.0898 H         1 <0>         0.1166
     25 H3         -5.4482    4.0748    0.9672 H         1 <0>         0.1169
     26 H4         -3.7125   -0.5440   -0.4917 H         1 <0>         0.1311
     27 H5         -1.9658   -0.8861   -0.5140 H         1 <0>         0.1136
     28 H6         -3.2904   -2.7682    0.9329 H         1 <0>         0.2319
     29 H7         -3.8657   -0.8627    3.8193 H         1 <0>         0.1680
     30 H8         -3.8396   -1.6987    6.1291 H         1 <0>         0.1360
     31 H9         -3.0509   -3.9437    6.6375 H         1 <0>         0.1340
     32 H10        -2.1679   -4.4521    1.1930 H         1 <0>         0.1190
     33 H11        -1.3787   -6.6971    1.7158 H         1 <0>         0.1280
     34 H12        -1.3604   -7.5177    4.0324 H         1 <0>         0.1302
     35 H13        -2.1296   -6.1066    5.8627 H         1 <0>         0.1356
     36 H14        -0.0140    0.0057   -0.0150 H         1 <0>         0.2219
     37 H15         0.8028    1.4739   -0.0180 H         1 <0>         0.2551
@<TRIPOS>BOND
     1    1    2 1
     2    1   23 1
     3    1   24 1
     4    1   25 1
     5    2    3 1
     6    3    7 1
     7    3    4 2
     8    4    5 1
     9    5    6 2
    10    6    7 1
    11    6   22 1
    12    7    8 1
    13    8    9 1
    14    8   26 1
    15    8   27 1
    16    9   10 2
    17    9   11 am
    18   11   12 1
    19   11   28 1
    20   12   17 ar
    21   12   13 ar
    22   13   14 ar
    23   13   29 1
    24   14   15 ar
    25   14   30 1
    26   15   16 ar
    27   15   31 1
    28   16   21 ar
    29   16   17 ar
    30   17   18 ar
    31   18   19 ar
    32   18   32 1
    33   19   20 ar
    34   19   33 1
    35   20   21 ar
    36   20   34 1
    37   21   35 1
    38   22   36 1
    39   22   37 1
@<TRIPOS>MOLECULE
ZINC01922752
   45    48     0     0     0
SMALL
USER_CHARGES

@<TRIPOS>ATOM
      1 C1          0.6468   -7.8190    2.8311 C.ar      1 <0>        -0.1176
      2 C2          1.9896   -7.8281    2.5032 C.ar      1 <0>        -0.1303
      3 C3          2.7488   -6.6845    2.6669 C.ar      1 <0>        -0.1087
      4 C4          2.1653   -5.5321    3.1591 C.ar      1 <0>        -0.0832
      5 C5          0.8238   -5.5246    3.4924 C.ar      1 <0>        -0.1049
      6 C6          0.0632   -6.6665    3.3233 C.ar      1 <0>        -0.1269
      7 C7          2.9931   -4.2855    3.3380 C.3       1 <0>        -0.2018
      8 S1          2.9392   -3.3002    1.8159 S.3       1 <0>         0.2023
      9 C8          3.9405   -1.8971    2.1807 C.2       1 <0>        -0.1859
     10 N1          4.5613   -1.6664    3.3121 N.2       1 <0>        -0.0962
     11 N2          5.2437   -0.4489    3.1907 N.2       1 <0>        -0.1666
     12 C9          5.0226    0.0213    1.9879 C.2       1 <0>         0.1336
     13 N3          4.2067   -0.8578    1.3339 N.pl3     1 <0>        -0.2132
     14 C10         3.7094   -0.7147   -0.0367 C.3       1 <0>         0.0359
     15 C11         2.3957    0.0236   -0.0199 C.ar      1 <0>        -0.1462
     16 C12         1.2075   -0.6808   -0.0135 C.ar      1 <0>        -0.0130
     17 C13         0.0021   -0.0041    0.0020 C.ar      1 <0>        -0.1420
     18 C14        -0.0167    1.3784    0.0096 C.ar      1 <0>        -0.0210
     19 C15         1.1694    2.0877    0.0021 C.ar      1 <0>        -0.2021
     20 C16         2.3796    1.4115   -0.0105 C.ar      1 <0>         0.1632
     21 O1          3.5540    2.0968   -0.0088 O.3       1 <0>        -0.2389
     22 C17         3.4946    3.4818   -0.3613 C.3       1 <0>         0.1131
     23 O2          2.4268    4.0950    0.3709 O.3       1 <0>        -0.2702
     24 C18         1.1372    3.5952    0.0042 C.3       1 <0>         0.0291
     25 N4         -1.2701   -0.7605    0.0100 N.pl3     1 <0>         0.5532
     26 O3         -2.3325   -0.1651    0.0233 O.2       1 <0>        -0.3576
     27 O4         -1.2545   -1.9784    0.0033 O.3       1 <0>        -0.3482
     28 N5          5.5262    1.2076    1.4699 N.pl3     1 <0>        -0.3967
     29 H1          0.0534   -8.7122    2.7025 H         1 <0>         0.1310
     30 H2          2.4455   -8.7285    2.1187 H         1 <0>         0.1318
     31 H3          3.7980   -6.6916    2.4107 H         1 <0>         0.1348
     32 H4          0.3689   -4.6255    3.8810 H         1 <0>         0.1375
     33 H5         -0.9860   -6.6593    3.5792 H         1 <0>         0.1344
     34 H6          4.0247   -4.5625    3.5552 H         1 <0>         0.1241
     35 H7          2.5926   -3.6990    4.1649 H         1 <0>         0.1252
     36 H8          3.5658   -1.7019   -0.4759 H         1 <0>         0.1222
     37 H9          4.4332   -0.1552   -0.6292 H         1 <0>         0.1129
     38 H10         1.2201   -1.7607   -0.0210 H         1 <0>         0.1822
     39 H11        -0.9597    1.9048    0.0169 H         1 <0>         0.1695
     40 H12         3.3082    3.5795   -1.4308 H         1 <0>         0.0775
     41 H13         4.4374    3.9670   -0.1085 H         1 <0>         0.1511
     42 H14         0.8772    3.9550   -0.9913 H         1 <0>         0.0880
     43 H15         0.3942    3.9423    0.7221 H         1 <0>         0.1365
     44 H16         5.3032    1.4748    0.5645 H         1 <0>         0.2333
     45 H17         6.1009    1.7689    2.0136 H         1 <0>         0.2490
@<TRIPOS>BOND
     1    1    6 ar
     2    1    2 ar
     3    1   29 1
     4    2    3 ar
     5    2   30 1
     6    3    4 ar
     7    3   31 1
     8    4    5 ar
     9    4    7 1
    10    5    6 ar
    11    5   32 1
    12    6   33 1
    13    7    8 1
    14    7   34 1
    15    7   35 1
    16    8    9 1
    17    9   13 1
    18    9   10 2
    19   10   11 1
    20   11   12 2
    21   12   13 1
    22   12   28 1
    23   13   14 1
    24   14   15 1
    25   14   36 1
    26   14   37 1
    27   15   20 ar
    28   15   16 ar
    29   16   17 ar
    30   16   38 1
    31   17   18 ar
    32   17   25 1
    33   18   19 ar
    34   18   39 1
    35   19   24 1
    36   19   20 ar
    37   20   21 1
    38   21   22 1
    39   22   23 1
    40   22   40 1
    41   22   41 1
    42   23   24 1
    43   24   42 1
    44   24   43 1
    45   25   26 2
    46   25   27 1
    47   28   44 1
    48   28   45 1
@<TRIPOS>MOLECULE
ZINC01923449
   43    45     0     0     0
SMALL
USER_CHARGES

@<TRIPOS>ATOM
      1 C1          7.0843  -11.0311   -0.1534 C.ar      1 <0>        -0.1456
      2 C2          5.7841  -11.5069   -0.1403 C.ar      1 <0>        -0.0999
      3 C3          4.7181  -10.6276   -0.1213 C.ar      1 <0>        -0.1626
      4 C4          4.9449   -9.2609   -0.1151 C.ar      1 <0>         0.1132
      5 C5          6.2593   -8.7747   -0.1283 C.ar      1 <0>        -0.0784
      6 C6          7.3279   -9.6738   -0.1529 C.ar      1 <0>        -0.0946
      7 C7          6.5124   -7.3228   -0.1225 C.2       1 <0>        -0.1105
      8 N1          5.5166   -6.4905   -0.1051 N.2       1 <0>         0.0254
      9 N2          5.7572   -5.1103   -0.0995 N.am      1 <0>        -0.3316
     10 C8          4.7232   -4.2461   -0.0814 C.2       1 <0>         0.3090
     11 O1          3.5841   -4.6633   -0.0700 O.2       1 <0>        -0.3266
     12 C9          4.9820   -2.7615   -0.0754 C.3       1 <0>        -0.0253
     13 N3          3.7053   -2.0433   -0.0553 N.am      1 <0>        -0.3790
     14 C10         3.6903   -0.6956   -0.0468 C.2       1 <0>         0.3555
     15 O2          4.7363   -0.0759   -0.0558 O.2       1 <0>        -0.3764
     16 C11         2.4039    0.0280   -0.0265 C.ar      1 <0>        -0.1333
     17 C12         1.2007   -0.6820   -0.0160 C.ar      1 <0>        -0.1017
     18 C13         0.0021   -0.0041    0.0020 C.ar      1 <0>        -0.1339
     19 C14        -0.0168    1.3859    0.0097 C.ar      1 <0>         0.0425
     20 C15         1.1790    2.0995    0.0021 C.ar      1 <0>         0.0042
     21 C16         2.3859    1.4246   -0.0171 C.ar      1 <0>        -0.0606
     22 O3          1.1776    3.4608    0.0180 O.3       1 <0>        -0.2010
     23 C17        -0.0490    4.1072   -0.3391 C.3       1 <0>        -0.0521
     24 C18        -1.1941    3.4116    0.4092 C.3       1 <0>        -0.0533
     25 O4         -1.2121    2.0339    0.0189 O.3       1 <0>        -0.2021
     26 O5          3.8980   -8.3960   -0.0960 O.3       1 <0>        -0.2662
     27 H1          7.9110  -11.7258   -0.1682 H         1 <0>         0.1341
     28 H2          5.6020  -12.5714   -0.1447 H         1 <0>         0.1340
     29 H3          3.7068  -11.0063   -0.1115 H         1 <0>         0.1448
     30 H4          8.3435   -9.3066   -0.1673 H         1 <0>         0.1323
     31 H5          7.5265   -6.9514   -0.1326 H         1 <0>         0.1163
     32 H6          6.6680   -4.7768   -0.1086 H         1 <0>         0.2084
     33 H7          5.5396   -2.4863   -0.9707 H         1 <0>         0.1121
     34 H8          5.5615   -2.4973    0.8091 H         1 <0>         0.1139
     35 H9          2.8708   -2.5377   -0.0481 H         1 <0>         0.2490
     36 H10         1.2106   -1.7619   -0.0225 H         1 <0>         0.1397
     37 H11        -0.9271   -0.5546    0.0099 H         1 <0>         0.1499
     38 H12         3.3139    1.9770   -0.0250 H         1 <0>         0.1708
     39 H13        -0.0076    5.1581   -0.0528 H         1 <0>         0.1237
     40 H14        -0.2083    4.0251   -1.4143 H         1 <0>         0.0955
     41 H15        -1.0308    3.4883    1.4842 H         1 <0>         0.0971
     42 H16        -2.1427    3.8799    0.1467 H         1 <0>         0.1234
     43 H17         3.5837   -8.1395   -0.9737 H         1 <0>         0.2402
@<TRIPOS>BOND
     1    1    6 ar
     2    1    2 ar
     3    1   27 1
     4    2    3 ar
     5    2   28 1
     6    3    4 ar
     7    3   29 1
     8    4    5 ar
     9    4   26 1
    10    5    6 ar
    11    5    7 1
    12    6   30 1
    13    7    8 2
    14    7   31 1
    15    8    9 1
    16    9   10 am
    17    9   32 1
    18   10   11 2
    19   10   12 1
    20   12   13 1
    21   12   33 1
    22   12   34 1
    23   13   14 am
    24   13   35 1
    25   14   15 2
    26   14   16 1
    27   16   21 ar
    28   16   17 ar
    29   17   18 ar
    30   17   36 1
    31   18   19 ar
    32   18   37 1
    33   19   25 1
    34   19   20 ar
    35   20   21 ar
    36   20   22 1
    37   21   38 1
    38   22   23 1
    39   23   24 1
    40   23   39 1
    41   23   40 1
    42   24   25 1
    43   24   41 1
    44   24   42 1
    45   26   43 1
@<TRIPOS>MOLECULE
ZINC01923565
   37    39     0     0     0
SMALL
USER_CHARGES

@<TRIPOS>ATOM
      1 C1          6.8929    7.0290   -3.6878 C.3       1 <0>        -0.0642
      2 O1          7.2206    5.7207   -3.2155 O.3       1 <0>        -0.2071
      3 C2          6.3035    5.1023   -2.4248 C.ar      1 <0>         0.0767
      4 C3          5.1116    5.7471   -2.1115 C.ar      1 <0>        -0.1759
      5 C4          4.1709    5.1325   -1.3084 C.ar      1 <0>        -0.1089
      6 C5          4.4102    3.8633   -0.8071 C.ar      1 <0>         0.0646
      7 C6          5.6122    3.2046   -1.1219 C.ar      1 <0>        -0.0999
      8 C7          6.5595    3.8353   -1.9350 C.ar      1 <0>        -0.1021
      9 C8          5.8575    1.8583   -0.5931 C.2       1 <0>         0.0052
     10 C9          4.7925    1.1888   -0.0311 C.2       1 <0>        -0.1488
     11 C10         3.4878    1.8877   -0.0211 C.2       1 <0>         0.0794
     12 N1          2.3661    1.2196   -0.0140 N.2       1 <0>        -0.0342
     13 N2          1.1435    1.9035    0.0014 N.am      1 <0>        -0.3147
     14 C11        -0.0144    1.2138    0.0087 C.2       1 <0>         0.4074
     15 O2          0.0021   -0.0041    0.0020 O.2       1 <0>        -0.3211
     16 C12        -1.2938    1.9295    0.0187 C.2       1 <0>        -0.3449
     17 C13        -2.5815    1.4169    0.0220 C.2       1 <0>        -0.0861
     18 C14        -3.6145    2.3216    0.0326 C.2       1 <0>        -0.1955
     19 C15        -3.3322    3.6504    0.0392 C.2       1 <0>        -0.3117
     20 S1         -1.5990    3.6871    0.0376 S.3       1 <0>         0.3819
     21 O3          3.4942    3.2506   -0.0138 O.3       1 <0>        -0.1702
     22 C16         4.9424   -0.1642    0.5307 C.2       1 <0>         0.3630
     23 O4          6.0267   -0.7150    0.5090 O.2       1 <0>        -0.3816
     24 N3          3.8782   -0.7921    1.0687 N.am      1 <0>        -0.4112
     25 H1          5.9790    6.9832   -4.2800 H         1 <0>         0.0691
     26 H2          6.7423    7.6949   -2.8380 H         1 <0>         0.0691
     27 H3          7.7076    7.4069   -4.3055 H         1 <0>         0.1142
     28 H4          4.9199    6.7364   -2.4999 H         1 <0>         0.1457
     29 H5          3.2484    5.6415   -1.0712 H         1 <0>         0.1478
     30 H6          7.4855    3.3356   -2.1784 H         1 <0>         0.1582
     31 H7          6.8387    1.4094   -0.6383 H         1 <0>         0.1790
     32 H8          1.1303    2.8734    0.0067 H         1 <0>         0.2293
     33 H9         -2.7645    0.3525    0.0161 H         1 <0>         0.1680
     34 H10        -4.6393    1.9807    0.0360 H         1 <0>         0.1508
     35 H11        -4.0208    4.4824    0.0479 H         1 <0>         0.1909
     36 H12         3.0135   -0.3528    1.0860 H         1 <0>         0.2459
     37 H13         3.9769   -1.6833    1.4388 H         1 <0>         0.2319
@<TRIPOS>BOND
     1    1    2 1
     2    1   25 1
     3    1   26 1
     4    1   27 1
     5    2    3 1
     6    3    8 ar
     7    3    4 ar
     8    4    5 ar
     9    4   28 1
    10    5    6 ar
    11    5   29 1
    12    6   21 1
    13    6    7 ar
    14    7    8 ar
    15    7    9 1
    16    8   30 1
    17    9   10 2
    18    9   31 1
    19   10   11 1
    20   10   22 1
    21   11   12 2
    22   11   21 1
    23   12   13 1
    24   13   14 am
    25   13   32 1
    26   14   15 2
    27   14   16 1
    28   16   20 1
    29   16   17 2
    30   17   18 1
    31   17   33 1
    32   18   19 2
    33   18   34 1
    34   19   20 1
    35   19   35 1
    36   22   23 2
    37   22   24 am
    38   24   36 1
    39   24   37 1
@<TRIPOS>MOLECULE
ZINC01933338
   43    46     0     0     0
SMALL
USER_CHARGES

@<TRIPOS>ATOM
      1 C1         -5.5199   -7.7489    4.0990 C.3       1 <0>        -0.1839
      2 C2         -4.4953   -6.6531    4.2430 C.ar      1 <0>        -0.0195
      3 C3         -3.2714   -6.7638    3.6100 C.ar      1 <0>        -0.1516
      4 C4         -2.3317   -5.7585    3.7417 C.ar      1 <0>        -0.0315
      5 C5         -2.6162   -4.6424    4.5061 C.ar      1 <0>        -0.7484
      6 C6         -3.8381   -4.5342    5.1434 C.ar      1 <0>        -0.0180
      7 C7         -4.7793   -5.5377    5.0085 C.ar      1 <0>        -0.1477
      8 S1         -1.4184   -3.3609    4.6739 S.o2      1 <0>         2.7776
      9 O1         -0.1510   -3.9553    4.4302 O.2       1 <0>        -0.9324
     10 O2         -1.7201   -2.6790    5.8835 O.2       1 <0>        -0.9005
     11 C8         -1.6964   -2.2135    3.3660 C.2       1 <0>        -0.8764
     12 C9         -2.5438   -1.0901    3.4133 C.ar      1 <0>         0.0272
     13 C10        -3.4116   -0.5117    4.4356 C.ar      1 <0>        -0.1164
     14 N1         -4.0892    0.5680    4.1644 N.ar      1 <0>        -0.0215
     15 N2         -4.0048    1.1864    2.9147 N.ar      1 <0>        -0.1501
     16 H1         -2.5437    0.7675    0.2493 H         1 <0>         0.2530
     17 C11        -3.2208    0.6972    1.9349 C.ar      1 <0>         0.1727
     18 O3         -3.1689    1.2616    0.8535 O.3       1 <0>        -0.1853
     19 C12        -2.4625   -0.4645    2.1603 C.ar      1 <0>        -0.1930
     20 N3         -1.5874   -1.2008    1.3915 N.pl3     1 <0>        -0.1580
     21 C13        -1.1365   -2.2578    2.1284 C.2       1 <0>         0.2769
     22 N4         -0.2452   -3.2222    1.6855 N.pl3     1 <0>        -0.3979
     23 C14        -1.2082   -0.9019    0.0083 C.3       1 <0>         0.0650
     24 C15         0.0021   -0.0041    0.0020 C.2       1 <0>        -0.1248
     25 C16         1.2839   -0.4117   -0.0124 C.2       1 <0>        -0.1693
     26 C17         2.0843    0.7537   -0.0138 C.2       1 <0>        -0.2205
     27 C18         1.2438    1.8038   -0.0001 C.2       1 <0>        -0.0628
     28 O4         -0.0161    1.3388    0.0094 O.3       1 <0>        -0.0510
     29 H2         -5.3809   -8.4828    4.8928 H         1 <0>         0.0951
     30 H3         -6.5205   -7.3223    4.1698 H         1 <0>         0.0883
     31 H4         -5.3994   -8.2340    3.1304 H         1 <0>         0.0854
     32 H5         -3.0495   -7.6355    3.0122 H         1 <0>         0.1352
     33 H6         -1.3756   -5.8450    3.2471 H         1 <0>         0.1375
     34 H7         -4.0586   -3.6642    5.7442 H         1 <0>         0.1525
     35 H8         -5.7352   -5.4513    5.5034 H         1 <0>         0.1400
     36 H9         -3.4912   -0.9748    5.4081 H         1 <0>         0.1923
     37 H10         0.1098   -3.1770    0.7839 H         1 <0>         0.2208
     38 H11         0.0236   -3.9425    2.2770 H         1 <0>         0.2724
     39 H12        -2.0351   -0.4007   -0.4949 H         1 <0>         0.1129
     40 H13        -0.9747   -1.8302   -0.5131 H         1 <0>         0.1266
     41 H14         1.6343   -1.4332   -0.0207 H         1 <0>         0.1543
     42 H15         3.1636    0.7932   -0.0236 H         1 <0>         0.1657
     43 H16         1.5330    2.8444    0.0027 H         1 <0>         0.2095
@<TRIPOS>BOND
     1    1    2 1
     2    1   29 1
     3    1   30 1
     4    1   31 1
     5    2    7 ar
     6    2    3 ar
     7    3    4 ar
     8    3   32 1
     9    4    5 ar
    10    4   33 1
    11    5    6 ar
    12    5    8 1
    13    6    7 ar
    14    6   34 1
    15    7   35 1
    16    8    9 2
    17    8   10 2
    18    8   11 1
    19   11   21 2
    20   11   12 1
    21   12   19 ar
    22   12   13 ar
    23   13   36 1
    24   13   14 ar
    25   14   15 ar
    26   15   17 ar
    27   16   18 1
    28   17   18 1
    29   17   19 ar
    30   19   20 1
    31   20   21 1
    32   20   23 1
    33   21   22 1
    34   22   37 1
    35   22   38 1
    36   23   24 1
    37   23   39 1
    38   23   40 1
    39   24   28 1
    40   24   25 2
    41   25   26 1
    42   25   41 1
    43   26   27 2
    44   26   42 1
    45   27   28 1
    46   27   43 1
@<TRIPOS>MOLECULE
ZINC01933338
   43    46     0     0     0
SMALL
USER_CHARGES

@<TRIPOS>ATOM
      1 C1         -5.5199   -7.7489    4.0990 C.3       1 <0>        -0.1839
      2 C2         -4.4953   -6.6531    4.2430 C.ar      1 <0>        -0.0195
      3 C3         -3.2714   -6.7638    3.6100 C.ar      1 <0>        -0.1516
      4 C4         -2.3317   -5.7585    3.7417 C.ar      1 <0>        -0.0315
      5 C5         -2.6162   -4.6424    4.5061 C.ar      1 <0>        -0.7484
      6 C6         -3.8381   -4.5342    5.1434 C.ar      1 <0>        -0.0180
      7 C7         -4.7793   -5.5377    5.0085 C.ar      1 <0>        -0.1477
      8 S1         -1.4184   -3.3609    4.6739 S.o2      1 <0>         2.7776
      9 O1         -0.1510   -3.9553    4.4302 O.2       1 <0>        -0.9324
     10 O2         -1.7201   -2.6790    5.8835 O.2       1 <0>        -0.9005
     11 C8         -1.6964   -2.2135    3.3660 C.2       1 <0>        -0.8764
     12 C9         -2.5438   -1.0901    3.4133 C.ar      1 <0>         0.0272
     13 C10        -3.4116   -0.5117    4.4356 C.ar      1 <0>        -0.1164
     14 N1         -4.0892    0.5680    4.1644 N.ar      1 <0>        -0.0215
     15 N2         -4.0048    1.1864    2.9147 N.ar      1 <0>        -0.1501
     16 H1         -2.5437    0.7675    0.2493 H         1 <0>         0.2530
     17 C11        -3.2208    0.6972    1.9349 C.ar      1 <0>         0.1727
     18 O3         -3.1689    1.2616    0.8535 O.3       1 <0>        -0.1853
     19 C12        -2.4625   -0.4645    2.1603 C.ar      1 <0>        -0.1930
     20 N3         -1.5874   -1.2008    1.3915 N.pl3     1 <0>        -0.1580
     21 C13        -1.1365   -2.2578    2.1284 C.2       1 <0>         0.2769
     22 N4         -0.2452   -3.2222    1.6855 N.pl3     1 <0>        -0.3979
     23 C14        -1.2082   -0.9019    0.0083 C.3       1 <0>         0.0650
     24 C15         0.0021   -0.0041    0.0020 C.2       1 <0>        -0.1248
     25 C16         1.2839   -0.4117   -0.0124 C.2       1 <0>        -0.1693
     26 C17         2.0843    0.7537   -0.0138 C.2       1 <0>        -0.2205
     27 C18         1.2438    1.8038   -0.0001 C.2       1 <0>        -0.0628
     28 O4         -0.0161    1.3388    0.0094 O.3       1 <0>        -0.0510
     29 H2         -5.3809   -8.4828    4.8928 H         1 <0>         0.0951
     30 H3         -6.5205   -7.3223    4.1698 H         1 <0>         0.0883
     31 H4         -5.3994   -8.2340    3.1304 H         1 <0>         0.0854
     32 H5         -3.0495   -7.6355    3.0122 H         1 <0>         0.1352
     33 H6         -1.3756   -5.8450    3.2471 H         1 <0>         0.1375
     34 H7         -4.0586   -3.6642    5.7442 H         1 <0>         0.1525
     35 H8         -5.7352   -5.4513    5.5034 H         1 <0>         0.1400
     36 H9         -3.4912   -0.9748    5.4081 H         1 <0>         0.1923
     37 H10         0.1098   -3.1770    0.7839 H         1 <0>         0.2208
     38 H11         0.0236   -3.9425    2.2770 H         1 <0>         0.2724
     39 H12        -2.0351   -0.4007   -0.4949 H         1 <0>         0.1129
     40 H13        -0.9747   -1.8302   -0.5131 H         1 <0>         0.1266
     41 H14         1.6343   -1.4332   -0.0207 H         1 <0>         0.1543
     42 H15         3.1636    0.7932   -0.0236 H         1 <0>         0.1657
     43 H16         1.5330    2.8444    0.0027 H         1 <0>         0.2095
@<TRIPOS>BOND
     1    1    2 1
     2    1   29 1
     3    1   30 1
     4    1   31 1
     5    2    7 ar
     6    2    3 ar
     7    3    4 ar
     8    3   32 1
     9    4    5 ar
    10    4   33 1
    11    5    6 ar
    12    5    8 1
    13    6    7 ar
    14    6   34 1
    15    7   35 1
    16    8    9 2
    17    8   10 2
    18    8   11 1
    19   11   21 2
    20   11   12 1
    21   12   19 ar
    22   12   13 ar
    23   13   36 1
    24   13   14 ar
    25   14   15 ar
    26   15   17 ar
    27   16   18 1
    28   17   18 1
    29   17   19 ar
    30   19   20 1
    31   20   21 1
    32   20   23 1
    33   21   22 1
    34   22   37 1
    35   22   38 1
    36   23   24 1
    37   23   39 1
    38   23   40 1
    39   24   28 1
    40   24   25 2
    41   25   26 1
    42   25   41 1
    43   26   27 2
    44   26   42 1
    45   27   28 1
    46   27   43 1
@<TRIPOS>MOLECULE
ZINC01933339
   45    47     0     0     0
SMALL
USER_CHARGES

@<TRIPOS>ATOM
      1 C1         -6.4491   -0.4543    7.9999 C.3       1 <0>        -0.1838
      2 C2         -5.9794   -0.8029    6.6111 C.ar      1 <0>        -0.0196
      3 C3         -6.7844   -0.5311    5.5206 C.ar      1 <0>        -0.1487
      4 C4         -6.3534   -0.8505    4.2466 C.ar      1 <0>        -0.0208
      5 C5         -5.1172   -1.4412    4.0630 C.ar      1 <0>        -0.7471
      6 C6         -4.3144   -1.7178    5.1539 C.ar      1 <0>        -0.0287
      7 C7         -4.7438   -1.3949    6.4276 C.ar      1 <0>        -0.1504
      8 S1         -4.5677   -1.8483    2.4391 S.o2      1 <0>         2.7769
      9 O1         -5.7339   -1.9915    1.6398 O.2       1 <0>        -0.9091
     10 O2         -3.6103   -2.8884    2.5831 O.2       1 <0>        -0.9301
     11 C8         -3.6994   -0.4472    1.8165 C.2       1 <0>        -0.8702
     12 C9         -4.2598    0.6224    1.0924 C.2       1 <0>        -0.0179
     13 C10        -5.6080    0.9455    0.6336 C.2       1 <0>        -0.0726
     14 N1         -5.8127    2.0525   -0.0235 N.2       1 <0>        -0.0305
     15 N2         -4.7672    2.9332   -0.3104 N.am      1 <0>        -0.2771
     16 H1         -4.9617    3.7702   -0.8219 H         1 <0>         0.2852
     17 C11        -3.5038    2.6840    0.0843 C.2       1 <0>         0.3469
     18 O3         -2.6121    3.4742   -0.1829 O.2       1 <0>        -0.3994
     19 C12        -3.2142    1.5122    0.8041 C.2       1 <0>        -0.1275
     20 N3         -2.0622    0.9766    1.3380 N.pl3     1 <0>        -0.1066
     21 C13        -2.3686   -0.2051    1.9494 C.2       1 <0>         0.2555
     22 N4         -1.4650   -1.0280    2.6027 N.pl3     1 <0>        -0.3995
     23 C14        -0.7288    1.5792    1.2668 C.3       1 <0>        -0.0211
     24 C15        -0.0127    1.0858    0.0080 C.3       1 <0>        -0.1348
     25 C16         1.4227    1.6154   -0.0028 C.3       1 <0>        -0.2065
     26 C17        -0.7527    1.5927   -1.2315 C.3       1 <0>        -0.2103
     27 H2         -6.9939   -1.2988    8.4219 H         1 <0>         0.0948
     28 H3         -5.5880   -0.2269    8.6283 H         1 <0>         0.0862
     29 H4         -7.1051    0.4150    7.9541 H         1 <0>         0.0875
     30 H5         -7.7499   -0.0689    5.6640 H         1 <0>         0.1384
     31 H6         -6.9823   -0.6381    3.3947 H         1 <0>         0.1484
     32 H7         -3.3505   -2.1834    5.0108 H         1 <0>         0.1401
     33 H8         -4.1150   -1.6076    7.2795 H         1 <0>         0.1360
     34 H9         -6.4302    0.2783    0.8462 H         1 <0>         0.2067
     35 H10        -0.5289   -0.7785    2.6510 H         1 <0>         0.2258
     36 H11        -1.7686   -1.8535    3.0116 H         1 <0>         0.2681
     37 H12        -0.1536    1.2938    2.1476 H         1 <0>         0.0878
     38 H13        -0.8222    2.6646    1.2299 H         1 <0>         0.1407
     39 H14         0.0021   -0.0041    0.0020 H         1 <0>         0.0921
     40 H15         1.4079    2.7053    0.0031 H         1 <0>         0.0835
     41 H16         1.9499    1.2543    0.8802 H         1 <0>         0.0664
     42 H17         1.9329    1.2639   -0.8996 H         1 <0>         0.0857
     43 H18        -0.2425    1.2411   -2.1283 H         1 <0>         0.0736
     44 H19        -1.7753    1.2154   -1.2238 H         1 <0>         0.0814
     45 H20        -0.7675    2.6825   -1.2255 H         1 <0>         0.1047
@<TRIPOS>BOND
     1    1    2 1
     2    1   27 1
     3    1   28 1
     4    1   29 1
     5    2    7 ar
     6    2    3 ar
     7    3    4 ar
     8    3   30 1
     9    4    5 ar
    10    4   31 1
    11    5    6 ar
    12    5    8 1
    13    6    7 ar
    14    6   32 1
    15    7   33 1
    16    8    9 2
    17    8   10 2
    18    8   11 1
    19   11   21 2
    20   11   12 1
    21   12   19 2
    22   12   13 1
    23   13   14 2
    24   13   34 1
    25   14   15 1
    26   15   16 1
    27   15   17 am
    28   17   18 2
    29   17   19 1
    30   19   20 1
    31   20   21 1
    32   20   23 1
    33   21   22 1
    34   22   35 1
    35   22   36 1
    36   23   24 1
    37   23   37 1
    38   23   38 1
    39   24   25 1
    40   24   26 1
    41   24   39 1
    42   25   40 1
    43   25   41 1
    44   25   42 1
    45   26   43 1
    46   26   44 1
    47   26   45 1
@<TRIPOS>MOLECULE
ZINC01933339
   45    47     0     0     0
SMALL
USER_CHARGES

@<TRIPOS>ATOM
      1 C1         -6.4353   -0.4456    8.0085 C.3       1 <0>        -0.1838
      2 C2         -5.9693   -0.7957    6.6188 C.ar      1 <0>        -0.0196
      3 C3         -6.7764   -0.5234    5.5300 C.ar      1 <0>        -0.1478
      4 C4         -6.3488   -0.8441    4.2552 C.ar      1 <0>        -0.0180
      5 C5         -5.1139   -1.4366    4.0691 C.ar      1 <0>        -0.7479
      6 C6         -4.3089   -1.7138    5.1583 C.ar      1 <0>        -0.0311
      7 C7         -4.7349   -1.3895    6.4328 C.ar      1 <0>        -0.1516
      8 S1         -4.5687   -1.8454    2.4441 S.o2      1 <0>         2.7777
      9 O1         -5.7369   -1.9874    1.6476 O.2       1 <0>        -0.9018
     10 O2         -3.6124   -2.8868    2.5865 O.2       1 <0>        -0.9332
     11 C8         -3.6998   -0.4459    1.8187 C.2       1 <0>        -0.8791
     12 C9         -4.2604    0.6240    1.0953 C.ar      1 <0>         0.0244
     13 C10        -5.6092    0.9488    0.6394 C.ar      1 <0>        -0.1155
     14 N1         -5.8138    2.0557   -0.0178 N.ar      1 <0>        -0.0232
     15 N2         -4.7654    2.9282   -0.3191 N.ar      1 <0>        -0.1505
     16 H1         -1.7430    3.1280    0.1707 H         1 <0>         0.2584
     17 C11        -3.5020    2.6789    0.0753 C.ar      1 <0>         0.1689
     18 O3         -2.6095    3.4670   -0.1956 O.3       1 <0>        -0.1984
     19 C12        -3.2133    1.5096    0.7995 C.ar      1 <0>        -0.1959
     20 N3         -2.0615    0.9746    1.3345 N.pl3     1 <0>        -0.1552
     21 C13        -2.3687   -0.2048    1.9499 C.2       1 <0>         0.2731
     22 N4         -1.4652   -1.0272    2.6040 N.pl3     1 <0>        -0.3983
     23 C14        -0.7273    1.5751    1.2596 C.3       1 <0>        -0.0245
     24 C15        -0.0131    1.0757    0.0021 C.3       1 <0>        -0.1486
     25 C16         1.4230    1.6033   -0.0122 C.3       1 <0>        -0.2095
     26 C17        -0.7536    1.5786   -1.2387 C.3       1 <0>        -0.2271
     27 H2         -6.9803   -1.2891    8.4322 H         1 <0>         0.0949
     28 H3         -5.5724   -0.2191    8.6347 H         1 <0>         0.0854
     29 H4         -7.0901    0.4246    7.9637 H         1 <0>         0.0882
     30 H5         -7.7409   -0.0597    5.6754 H         1 <0>         0.1398
     31 H6         -6.9794   -0.6313    3.4046 H         1 <0>         0.1522
     32 H7         -3.3460   -2.1808    5.0132 H         1 <0>         0.1380
     33 H8         -4.1045   -1.6026    7.2833 H         1 <0>         0.1351
     34 H9         -6.4300    0.2777    0.8451 H         1 <0>         0.1926
     35 H10        -0.5283   -0.7801    2.6481 H         1 <0>         0.2227
     36 H11        -1.7698   -1.8500    3.0177 H         1 <0>         0.2716
     37 H12        -0.1517    1.2924    2.1410 H         1 <0>         0.1064
     38 H13        -0.8193    2.6605    1.2184 H         1 <0>         0.1003
     39 H14         0.0002   -0.0143    0.0004 H         1 <0>         0.1108
     40 H15         1.4096    2.6932   -0.0107 H         1 <0>         0.0783
     41 H16         1.9505    1.2450    0.8717 H         1 <0>         0.0745
     42 H17         1.9318    1.2475   -0.9081 H         1 <0>         0.0938
     43 H18        -0.2448    1.2227   -2.1346 H         1 <0>         0.0968
     44 H19        -1.7767    1.2027   -1.2285 H         1 <0>         0.0976
     45 H20        -0.7670    2.6685   -1.2371 H         1 <0>         0.0789
@<TRIPOS>BOND
     1    1    2 1
     2    1   27 1
     3    1   28 1
     4    1   29 1
     5    2    7 ar
     6    2    3 ar
     7    3    4 ar
     8    3   30 1
     9    4    5 ar
    10    4   31 1
    11    5    6 ar
    12    5    8 1
    13    6    7 ar
    14    6   32 1
    15    7   33 1
    16    8    9 2
    17    8   10 2
    18    8   11 1
    19   11   21 2
    20   11   12 1
    21   12   19 ar
    22   12   13 ar
    23   13   34 1
    24   13   14 ar
    25   14   15 ar
    26   15   17 ar
    27   16   18 1
    28   17   18 1
    29   17   19 ar
    30   19   20 1
    31   20   21 1
    32   20   23 1
    33   21   22 1
    34   22   35 1
    35   22   36 1
    36   23   24 1
    37   23   37 1
    38   23   38 1
    39   24   25 1
    40   24   26 1
    41   24   39 1
    42   25   40 1
    43   25   41 1
    44   25   42 1
    45   26   43 1
    46   26   44 1
    47   26   45 1
@<TRIPOS>MOLECULE
ZINC01933349
   40    42     0     0     0
SMALL
USER_CHARGES

@<TRIPOS>ATOM
      1 C1        -10.2333    1.4027   -1.6297 C.3       1 <0>        -0.1838
      2 C2         -8.8806    0.8037   -1.9166 C.ar      1 <0>        -0.0196
      3 C3         -8.2908    0.9888   -3.1531 C.ar      1 <0>        -0.1488
      4 C4         -7.0498    0.4397   -3.4161 C.ar      1 <0>        -0.0208
      5 C5         -6.3983   -0.2942   -2.4425 C.ar      1 <0>        -0.7472
      6 C6         -6.9904   -0.4837   -1.2078 C.ar      1 <0>        -0.0287
      7 C7         -8.2297    0.0687   -0.9435 C.ar      1 <0>        -0.1505
      8 S1         -4.8164   -0.9941   -2.7777 S.o2      1 <0>         2.7770
      9 O1         -4.7262   -1.1368   -4.1887 O.2       1 <0>        -0.9089
     10 O2         -4.6618   -2.0924   -1.8895 O.2       1 <0>        -0.9302
     11 C8         -3.6086    0.2022   -2.3143 C.2       1 <0>        -0.8700
     12 C9         -3.0689    1.2022   -3.1457 C.2       1 <0>        -0.0175
     13 C10        -3.2741    1.5877   -4.5393 C.2       1 <0>        -0.0728
     14 N1         -2.6119    2.5984   -5.0282 N.2       1 <0>        -0.0303
     15 N2         -1.6990    3.3155   -4.2514 N.am      1 <0>        -0.2771
     16 H1         -1.2051    4.0815   -4.6629 H         1 <0>         0.2851
     17 C11        -1.4670    3.0017   -2.9623 C.2       1 <0>         0.3488
     18 O3         -0.6621    3.6482   -2.3104 O.2       1 <0>        -0.4000
     19 C12        -2.1531    1.9280   -2.3694 C.2       1 <0>        -0.1246
     20 N3         -2.1461    1.3646   -1.1118 N.pl3     1 <0>        -0.1056
     21 C13        -3.0312    0.3255   -1.0901 C.2       1 <0>         0.2554
     22 N4         -3.2989   -0.4773    0.0073 N.pl3     1 <0>        -0.3999
     23 C14        -1.3278    1.8115    0.0182 C.3       1 <0>         0.0102
     24 C15        -0.0126    1.0758    0.0080 C.2       1 <0>        -0.2182
     25 C16         1.1129    1.7462    0.0008 C.2       1 <0>        -0.1657
     26 H2        -11.0116    0.6908   -1.9045 H         1 <0>         0.0948
     27 H3        -10.3105    1.6335   -0.5673 H         1 <0>         0.0862
     28 H4        -10.3561    2.3172   -2.2100 H         1 <0>         0.0875
     29 H5         -8.7995    1.5627   -3.9135 H         1 <0>         0.1384
     30 H6         -6.5890    0.5843   -4.3821 H         1 <0>         0.1485
     31 H7         -6.4833   -1.0608   -0.4487 H         1 <0>         0.1401
     32 H8         -8.6906   -0.0763    0.0224 H         1 <0>         0.1360
     33 H9         -3.9763    1.0468   -5.1563 H         1 <0>         0.2065
     34 H10        -2.8401   -0.3193    0.8472 H         1 <0>         0.2257
     35 H11        -3.9450   -1.1972   -0.0644 H         1 <0>         0.2682
     36 H12        -1.8525    1.6048    0.9510 H         1 <0>         0.0931
     37 H13        -1.1455    2.8828   -0.0664 H         1 <0>         0.1411
     38 H14         0.0021   -0.0041    0.0020 H         1 <0>         0.1309
     39 H15         2.0554    1.2190   -0.0110 H         1 <0>         0.1189
     40 H16         1.0982    2.8261    0.0067 H         1 <0>         0.1280
@<TRIPOS>BOND
     1    1    2 1
     2    1   26 1
     3    1   27 1
     4    1   28 1
     5    2    7 ar
     6    2    3 ar
     7    3    4 ar
     8    3   29 1
     9    4    5 ar
    10    4   30 1
    11    5    6 ar
    12    5    8 1
    13    6    7 ar
    14    6   31 1
    15    7   32 1
    16    8    9 2
    17    8   10 2
    18    8   11 1
    19   11   21 2
    20   11   12 1
    21   12   19 2
    22   12   13 1
    23   13   14 2
    24   13   33 1
    25   14   15 1
    26   15   16 1
    27   15   17 am
    28   17   18 2
    29   17   19 1
    30   19   20 1
    31   20   21 1
    32   20   23 1
    33   21   22 1
    34   22   34 1
    35   22   35 1
    36   23   24 1
    37   23   36 1
    38   23   37 1
    39   24   25 2
    40   24   38 1
    41   25   39 1
    42   25   40 1
@<TRIPOS>MOLECULE
ZINC01933349
   40    42     0     0     0
SMALL
USER_CHARGES

@<TRIPOS>ATOM
      1 C1        -10.2324    1.4107   -1.6142 C.3       1 <0>        -0.1838
      2 C2         -8.8809    0.8106   -1.9045 C.ar      1 <0>        -0.0196
      3 C3         -8.2934    0.9966   -3.1420 C.ar      1 <0>        -0.1478
      4 C4         -7.0535    0.4465   -3.4082 C.ar      1 <0>        -0.0181
      5 C5         -6.4009   -0.2894   -2.4368 C.ar      1 <0>        -0.7481
      6 C6         -6.9907   -0.4798   -1.2012 C.ar      1 <0>        -0.0311
      7 C7         -8.2289    0.0736   -0.9337 C.ar      1 <0>        -0.1516
      8 S1         -4.8205   -0.9906   -2.7761 S.o2      1 <0>         2.7777
      9 O1         -4.7332   -1.1316   -4.1875 O.2       1 <0>        -0.9014
     10 O2         -4.6653   -2.0902   -1.8896 O.2       1 <0>        -0.9331
     11 C8         -3.6104    0.2037   -2.3136 C.2       1 <0>        -0.8786
     12 C9         -3.0713    1.2042   -3.1448 C.ar      1 <0>         0.0252
     13 C10        -3.2788    1.5917   -4.5375 C.ar      1 <0>        -0.1150
     14 N1         -2.6165    2.6023   -5.0264 N.ar      1 <0>        -0.0228
     15 N2         -1.6916    3.3092   -4.2543 N.ar      1 <0>        -0.1493
     16 H1         -0.6045    3.2729   -1.3851 H         1 <0>         0.2511
     17 C11        -1.4594    2.9952   -2.9652 C.ar      1 <0>         0.1697
     18 O3         -0.6515    3.6391   -2.3145 O.3       1 <0>        -0.1911
     19 C12        -2.1493    1.9247   -2.3709 C.ar      1 <0>        -0.1928
     20 N3         -2.1431    1.3620   -1.1130 N.pl3     1 <0>        -0.1540
     21 C13        -3.0317    0.3259   -1.0899 C.2       1 <0>         0.2738
     22 N4         -3.3001   -0.4762    0.0078 N.pl3     1 <0>        -0.3984
     23 C14        -1.3217    1.8063    0.0158 C.3       1 <0>         0.0055
     24 C15        -0.0096    1.0652    0.0046 C.2       1 <0>        -0.2193
     25 C16         1.1187    1.7310   -0.0043 C.2       1 <0>        -0.1784
     26 H2        -11.0120    0.7000   -1.8883 H         1 <0>         0.0950
     27 H3        -10.3072    1.6402   -0.5513 H         1 <0>         0.0854
     28 H4        -10.3553    2.3261   -2.1931 H         1 <0>         0.0882
     29 H5         -8.8030    1.5720   -3.9006 H         1 <0>         0.1398
     30 H6         -6.5945    0.5918   -4.3749 H         1 <0>         0.1522
     31 H7         -6.4828   -1.0585   -0.4438 H         1 <0>         0.1380
     32 H8         -8.6880   -0.0721    0.0329 H         1 <0>         0.1352
     33 H9         -3.9750    1.0457   -5.1568 H         1 <0>         0.1927
     34 H10        -2.8378   -0.3212    0.8464 H         1 <0>         0.2228
     35 H11        -3.9502   -1.1927   -0.0623 H         1 <0>         0.2719
     36 H12        -1.8462    1.6023    0.9494 H         1 <0>         0.1125
     37 H13        -1.1351    2.8768   -0.0696 H         1 <0>         0.1016
     38 H14         0.0007   -0.0148   -0.0008 H         1 <0>         0.1483
     39 H15         2.0590    1.1999   -0.0169 H         1 <0>         0.1348
     40 H16         1.1084    2.8109    0.0010 H         1 <0>         0.1130
@<TRIPOS>BOND
     1    1    2 1
     2    1   26 1
     3    1   27 1
     4    1   28 1
     5    2    7 ar
     6    2    3 ar
     7    3    4 ar
     8    3   29 1
     9    4    5 ar
    10    4   30 1
    11    5    6 ar
    12    5    8 1
    13    6    7 ar
    14    6   31 1
    15    7   32 1
    16    8    9 2
    17    8   10 2
    18    8   11 1
    19   11   21 2
    20   11   12 1
    21   12   19 ar
    22   12   13 ar
    23   13   33 1
    24   13   14 ar
    25   14   15 ar
    26   15   17 ar
    27   16   18 1
    28   17   18 1
    29   17   19 ar
    30   19   20 1
    31   20   21 1
    32   20   23 1
    33   21   22 1
    34   22   34 1
    35   22   35 1
    36   23   24 1
    37   23   36 1
    38   23   37 1
    39   24   25 2
    40   24   38 1
    41   25   39 1
    42   25   40 1
@<TRIPOS>MOLECULE
ZINC01933353
   45    47     0     0     0
SMALL
USER_CHARGES

@<TRIPOS>ATOM
      1 C1         -0.0127    1.0858    0.0080 C.3       1 <0>        -0.2114
      2 C2         -0.7288    1.5792    1.2668 C.3       1 <0>        -0.1805
      3 C3         -0.7496    3.1091    1.2752 C.3       1 <0>         0.0131
      4 H1          0.2682    3.4868    1.1780 H         1 <0>         0.1615
      5 C4         -1.5951    3.6141    0.1043 C.3       1 <0>        -0.2318
      6 N1         -1.3279    3.5827    2.5352 N.pl3     1 <0>        -0.1049
      7 C5         -0.6912    4.3819    3.4597 C.2       1 <0>        -0.1284
      8 C6         -1.5926    4.6005    4.5122 C.2       1 <0>        -0.0174
      9 C7         -1.1723    5.4261    5.6412 C.2       1 <0>        -0.0727
     10 N2          0.0255    5.9399    5.6480 N.2       1 <0>        -0.0307
     11 N3          0.9190    5.7184    4.5974 N.am      1 <0>        -0.2767
     12 H2          1.8300    6.1289    4.6379 H         1 <0>         0.2852
     13 C8          0.5851    4.9661    3.5313 C.2       1 <0>         0.3483
     14 O1          1.3891    4.7924    2.6289 O.2       1 <0>        -0.4011
     15 C9         -2.7766    3.9115    4.1873 C.2       1 <0>        -0.8716
     16 C10        -2.5882    3.3096    2.9834 C.2       1 <0>         0.2587
     17 N4         -3.5266    2.5373    2.3173 N.pl3     1 <0>        -0.4034
     18 S1         -4.2424    3.8474    5.1629 S.o2      1 <0>         2.7770
     19 O2         -4.9304    2.6629    4.7849 O.2       1 <0>        -0.9300
     20 O3         -3.8493    4.1050    6.5039 O.2       1 <0>        -0.9095
     21 C11        -5.2578    5.1994    4.6672 C.ar      1 <0>        -0.7469
     22 C12        -5.1404    6.4213    5.3028 C.ar      1 <0>        -0.0209
     23 C13        -5.9342    7.4831    4.9112 C.ar      1 <0>        -0.1488
     24 C14        -6.8512    7.3207    3.8896 C.ar      1 <0>        -0.0198
     25 C15        -6.9722    6.0973    3.2575 C.ar      1 <0>        -0.1506
     26 C16        -6.1757    5.0366    3.6465 C.ar      1 <0>        -0.0286
     27 C17        -7.7192    8.4772    3.4652 C.3       1 <0>        -0.1837
     28 H3          0.0021   -0.0041    0.0020 H         1 <0>         0.0834
     29 H4          1.0099    1.4631    0.0003 H         1 <0>         0.0864
     30 H5         -0.5399    1.4469   -0.8751 H         1 <0>         0.0737
     31 H6         -1.7514    1.2020    1.2746 H         1 <0>         0.0779
     32 H7         -0.2017    1.2182    2.1499 H         1 <0>         0.1059
     33 H8         -2.6129    3.2364    0.2016 H         1 <0>         0.0712
     34 H9         -1.6098    4.7040    0.1103 H         1 <0>         0.0966
     35 H10        -1.1648    3.2617   -0.8331 H         1 <0>         0.0978
     36 H11        -1.8484    5.6097    6.4632 H         1 <0>         0.2065
     37 H12        -3.3077    2.1409    1.4594 H         1 <0>         0.2309
     38 H13        -4.4022    2.3932    2.7088 H         1 <0>         0.2648
     39 H14        -4.4264    6.5473    6.1032 H         1 <0>         0.1485
     40 H15        -5.8399    8.4389    5.4053 H         1 <0>         0.1383
     41 H16        -7.6888    5.9703    2.4595 H         1 <0>         0.1358
     42 H17        -6.2702    4.0808    3.1526 H         1 <0>         0.1400
     43 H18        -8.6406    8.4728    4.0475 H         1 <0>         0.0947
     44 H19        -7.1865    9.4129    3.6351 H         1 <0>         0.0875
     45 H20        -7.9583    8.3825    2.4060 H         1 <0>         0.0860
@<TRIPOS>BOND
     1    1    2 1
     2    1   28 1
     3    1   29 1
     4    1   30 1
     5    2    3 1
     6    2   31 1
     7    2   32 1
     8    3    4 1
     9    3    5 1
    10    3    6 1
    11    5   33 1
    12    5   34 1
    13    5   35 1
    14    6   16 1
    15    6    7 1
    16    7   13 1
    17    7    8 2
    18    8    9 1
    19    8   15 1
    20    9   10 2
    21    9   36 1
    22   10   11 1
    23   11   12 1
    24   11   13 am
    25   13   14 2
    26   15   16 2
    27   15   18 1
    28   16   17 1
    29   17   37 1
    30   17   38 1
    31   18   19 2
    32   18   20 2
    33   18   21 1
    34   21   26 ar
    35   21   22 ar
    36   22   23 ar
    37   22   39 1
    38   23   24 ar
    39   23   40 1
    40   24   25 ar
    41   24   27 1
    42   25   26 ar
    43   25   41 1
    44   26   42 1
    45   27   43 1
    46   27   44 1
    47   27   45 1
@<TRIPOS>MOLECULE
ZINC01933353
   45    47     0     0     0
SMALL
USER_CHARGES

@<TRIPOS>ATOM
      1 C1         -0.0129    1.0826    0.0104 C.3       1 <0>        -0.2144
      2 C2         -0.7294    1.5772    1.2685 C.3       1 <0>        -0.1849
      3 C3         -0.7487    3.1071    1.2763 C.3       1 <0>         0.0248
      4 H1          0.2695    3.4838    1.1797 H         1 <0>         0.1037
      5 C4         -1.5929    3.6125    0.1047 C.3       1 <0>        -0.2359
      6 N1         -1.3275    3.5817    2.5358 N.pl3     1 <0>        -0.1547
      7 C5         -0.6907    4.3806    3.4604 C.ar      1 <0>        -0.1959
      8 C6         -1.5923    4.5998    4.5126 C.ar      1 <0>         0.0248
      9 C7         -1.1717    5.4248    5.6420 C.ar      1 <0>        -0.1149
     10 N2          0.0261    5.9386    5.6487 N.ar      1 <0>        -0.0233
     11 N3          0.9200    5.7160    4.5988 N.ar      1 <0>        -0.1497
     12 H2          0.9805    4.2103    1.9259 H         1 <0>         0.2526
     13 C8          0.5862    4.9636    3.5327 C.ar      1 <0>         0.1687
     14 O1          1.3908    4.7884    2.6312 O.3       1 <0>        -0.1952
     15 C9         -2.7764    3.9110    4.1876 C.2       1 <0>        -0.8798
     16 C10        -2.5885    3.3102    2.9830 C.2       1 <0>         0.2761
     17 N4         -3.5273    2.5390    2.3163 N.pl3     1 <0>        -0.4028
     18 S1         -4.2419    3.8462    5.1636 S.o2      1 <0>         2.7779
     19 O2         -4.9300    2.6620    4.7850 O.2       1 <0>        -0.9331
     20 O3         -3.8484    4.1030    6.5046 O.2       1 <0>        -0.9018
     21 C11        -5.2575    5.1985    4.6690 C.ar      1 <0>        -0.7478
     22 C12        -5.1400    6.4200    5.3053 C.ar      1 <0>        -0.0181
     23 C13        -5.9339    7.4820    4.9145 C.ar      1 <0>        -0.1479
     24 C14        -6.8512    7.3202    3.8931 C.ar      1 <0>        -0.0199
     25 C15        -6.9723    6.0972    3.2603 C.ar      1 <0>        -0.1518
     26 C16        -6.1757    5.0363    3.6484 C.ar      1 <0>        -0.0312
     27 C17        -7.7193    8.4770    3.4696 C.3       1 <0>        -0.1837
     28 H3          0.0008   -0.0073    0.0048 H         1 <0>         0.0924
     29 H4          1.0101    1.4589    0.0033 H         1 <0>         0.0800
     30 H5         -0.5391    1.4439   -0.8732 H         1 <0>         0.0775
     31 H6         -1.7524    1.2010    1.2757 H         1 <0>         0.0921
     32 H7         -0.2033    1.2160    2.1521 H         1 <0>         0.1097
     33 H8         -2.6112    3.2358    0.2014 H         1 <0>         0.0857
     34 H9         -1.6066    4.7024    0.1103 H         1 <0>         0.0998
     35 H10        -1.1623    3.2593   -0.8323 H         1 <0>         0.1001
     36 H11        -1.8474    5.6074    6.4645 H         1 <0>         0.1922
     37 H12        -3.3084    2.1426    1.4584 H         1 <0>         0.2269
     38 H13        -4.4032    2.3956    2.7074 H         1 <0>         0.2688
     39 H14        -4.4257    6.5456    6.1056 H         1 <0>         0.1523
     40 H15        -5.8395    8.4375    5.4092 H         1 <0>         0.1397
     41 H16        -7.6891    5.9707    2.4624 H         1 <0>         0.1349
     42 H17        -6.2703    4.0808    3.1540 H         1 <0>         0.1378
     43 H18        -8.6406    8.4722    4.0522 H         1 <0>         0.0949
     44 H19        -7.1866    9.4126    3.6400 H         1 <0>         0.0881
     45 H20        -7.9587    8.3829    2.4105 H         1 <0>         0.0852
@<TRIPOS>BOND
     1    1    2 1
     2    1   28 1
     3    1   29 1
     4    1   30 1
     5    2    3 1
     6    2   31 1
     7    2   32 1
     8    3    4 1
     9    3    5 1
    10    3    6 1
    11    5   33 1
    12    5   34 1
    13    5   35 1
    14    6   16 1
    15    6    7 1
    16    7   13 ar
    17    7    8 ar
    18    8   15 1
    19    8    9 ar
    20    9   36 1
    21    9   10 ar
    22   10   11 ar
    23   11   13 ar
    24   12   14 1
    25   13   14 1
    26   15   16 2
    27   15   18 1
    28   16   17 1
    29   17   37 1
    30   17   38 1
    31   18   19 2
    32   18   20 2
    33   18   21 1
    34   21   26 ar
    35   21   22 ar
    36   22   23 ar
    37   22   39 1
    38   23   24 ar
    39   23   40 1
    40   24   25 ar
    41   24   27 1
    42   25   26 ar
    43   25   41 1
    44   26   42 1
    45   27   43 1
    46   27   44 1
    47   27   45 1
@<TRIPOS>MOLECULE
ZINC01933411
   42    44     0     0     0
SMALL
USER_CHARGES

@<TRIPOS>ATOM
      1 C1         -0.0129    1.0826    0.0104 C.3       1 <0>        -0.2144
      2 C2         -0.7294    1.5772    1.2685 C.3       1 <0>        -0.1849
      3 C3         -0.7487    3.1071    1.2763 C.3       1 <0>         0.0247
      4 H1          0.2695    3.4838    1.1797 H         1 <0>         0.1039
      5 C4         -1.5929    3.6125    0.1047 C.3       1 <0>        -0.2359
      6 N1         -1.3275    3.5817    2.5358 N.pl3     1 <0>        -0.1546
      7 C5         -0.6907    4.3806    3.4604 C.ar      1 <0>        -0.1956
      8 C6         -1.5923    4.5998    4.5126 C.ar      1 <0>         0.0246
      9 C7         -1.1717    5.4248    5.6420 C.ar      1 <0>        -0.1151
     10 N2          0.0261    5.9386    5.6487 N.ar      1 <0>        -0.0228
     11 N3          0.9200    5.7160    4.5988 N.ar      1 <0>        -0.1493
     12 H2          0.9805    4.2103    1.9259 H         1 <0>         0.2527
     13 C8          0.5862    4.9636    3.5327 C.ar      1 <0>         0.1688
     14 O1          1.3908    4.7884    2.6312 O.3       1 <0>        -0.1950
     15 C9         -2.7764    3.9110    4.1876 C.2       1 <0>        -0.8803
     16 C10        -2.5885    3.3102    2.9830 C.2       1 <0>         0.2763
     17 N4         -3.5273    2.5390    2.3163 N.pl3     1 <0>        -0.4027
     18 S1         -4.2419    3.8462    5.1636 S.o2      1 <0>         2.7772
     19 O2         -4.9300    2.6620    4.7850 O.2       1 <0>        -0.9322
     20 O3         -3.8484    4.1030    6.5046 O.2       1 <0>        -0.9008
     21 C11        -5.2575    5.1985    4.6690 C.ar      1 <0>        -0.7409
     22 C12        -5.1400    6.4200    5.3053 C.ar      1 <0>        -0.0221
     23 C13        -5.9333    7.4823    4.9139 C.ar      1 <0>        -0.1461
     24 C14        -6.8515    7.3201    3.8934 C.ar      1 <0>        -0.0744
     25 C15        -6.9726    6.0971    3.2606 C.ar      1 <0>        -0.1501
     26 C16        -6.1757    5.0363    3.6484 C.ar      1 <0>        -0.0353
     27 H3          0.0008   -0.0073    0.0048 H         1 <0>         0.0925
     28 H4          1.0101    1.4589    0.0033 H         1 <0>         0.0801
     29 H5         -0.5391    1.4439   -0.8732 H         1 <0>         0.0776
     30 H6         -1.7524    1.2010    1.2757 H         1 <0>         0.0920
     31 H7         -0.2033    1.2160    2.1521 H         1 <0>         0.1097
     32 H8         -2.6112    3.2358    0.2014 H         1 <0>         0.0856
     33 H9         -1.6066    4.7024    0.1103 H         1 <0>         0.0998
     34 H10        -1.1623    3.2593   -0.8323 H         1 <0>         0.1004
     35 H11        -1.8474    5.6074    6.4645 H         1 <0>         0.1921
     36 H12        -3.3084    2.1426    1.4584 H         1 <0>         0.2272
     37 H13        -4.4032    2.3956    2.7074 H         1 <0>         0.2687
     38 H14        -4.4257    6.5456    6.1056 H         1 <0>         0.1527
     39 H15        -5.8389    8.4377    5.4086 H         1 <0>         0.1395
     40 H16        -7.4744    8.1488    3.5907 H         1 <0>         0.1340
     41 H17        -7.6902    5.9703    2.4635 H         1 <0>         0.1346
     42 H18        -6.2706    4.0807    3.1543 H         1 <0>         0.1381
@<TRIPOS>BOND
     1    1    2 1
     2    1   27 1
     3    1   28 1
     4    1   29 1
     5    2    3 1
     6    2   30 1
     7    2   31 1
     8    3    4 1
     9    3    5 1
    10    3    6 1
    11    5   32 1
    12    5   33 1
    13    5   34 1
    14    6   16 1
    15    6    7 1
    16    7   13 ar
    17    7    8 ar
    18    8   15 1
    19    8    9 ar
    20    9   35 1
    21    9   10 ar
    22   10   11 ar
    23   11   13 ar
    24   12   14 1
    25   13   14 1
    26   15   16 2
    27   15   18 1
    28   16   17 1
    29   17   36 1
    30   17   37 1
    31   18   19 2
    32   18   20 2
    33   18   21 1
    34   21   26 ar
    35   21   22 ar
    36   22   23 ar
    37   22   38 1
    38   23   24 ar
    39   23   39 1
    40   24   25 ar
    41   24   40 1
    42   25   26 ar
    43   25   41 1
    44   26   42 1
@<TRIPOS>MOLECULE
ZINC01933411
   42    44     0     0     0
SMALL
USER_CHARGES

@<TRIPOS>ATOM
      1 C1         -0.0129    1.0826    0.0104 C.3       1 <0>        -0.2144
      2 C2         -0.7294    1.5772    1.2685 C.3       1 <0>        -0.1849
      3 C3         -0.7487    3.1071    1.2763 C.3       1 <0>         0.0247
      4 H1          0.2695    3.4838    1.1797 H         1 <0>         0.1039
      5 C4         -1.5929    3.6125    0.1047 C.3       1 <0>        -0.2359
      6 N1         -1.3275    3.5817    2.5358 N.pl3     1 <0>        -0.1546
      7 C5         -0.6907    4.3806    3.4604 C.ar      1 <0>        -0.1956
      8 C6         -1.5923    4.5998    4.5126 C.ar      1 <0>         0.0246
      9 C7         -1.1717    5.4248    5.6420 C.ar      1 <0>        -0.1151
     10 N2          0.0261    5.9386    5.6487 N.ar      1 <0>        -0.0228
     11 N3          0.9200    5.7160    4.5988 N.ar      1 <0>        -0.1493
     12 H2          0.9805    4.2103    1.9259 H         1 <0>         0.2527
     13 C8          0.5862    4.9636    3.5327 C.ar      1 <0>         0.1688
     14 O1          1.3908    4.7884    2.6312 O.3       1 <0>        -0.1950
     15 C9         -2.7764    3.9110    4.1876 C.2       1 <0>        -0.8803
     16 C10        -2.5885    3.3102    2.9830 C.2       1 <0>         0.2763
     17 N4         -3.5273    2.5390    2.3163 N.pl3     1 <0>        -0.4027
     18 S1         -4.2419    3.8462    5.1636 S.o2      1 <0>         2.7772
     19 O2         -4.9300    2.6620    4.7850 O.2       1 <0>        -0.9322
     20 O3         -3.8484    4.1030    6.5046 O.2       1 <0>        -0.9008
     21 C11        -5.2575    5.1985    4.6690 C.ar      1 <0>        -0.7409
     22 C12        -5.1400    6.4200    5.3053 C.ar      1 <0>        -0.0221
     23 C13        -5.9333    7.4823    4.9139 C.ar      1 <0>        -0.1461
     24 C14        -6.8515    7.3201    3.8934 C.ar      1 <0>        -0.0744
     25 C15        -6.9726    6.0971    3.2606 C.ar      1 <0>        -0.1501
     26 C16        -6.1757    5.0363    3.6484 C.ar      1 <0>        -0.0353
     27 H3          0.0008   -0.0073    0.0048 H         1 <0>         0.0925
     28 H4          1.0101    1.4589    0.0033 H         1 <0>         0.0801
     29 H5         -0.5391    1.4439   -0.8732 H         1 <0>         0.0776
     30 H6         -1.7524    1.2010    1.2757 H         1 <0>         0.0920
     31 H7         -0.2033    1.2160    2.1521 H         1 <0>         0.1097
     32 H8         -2.6112    3.2358    0.2014 H         1 <0>         0.0856
     33 H9         -1.6066    4.7024    0.1103 H         1 <0>         0.0998
     34 H10        -1.1623    3.2593   -0.8323 H         1 <0>         0.1004
     35 H11        -1.8474    5.6074    6.4645 H         1 <0>         0.1921
     36 H12        -3.3084    2.1426    1.4584 H         1 <0>         0.2272
     37 H13        -4.4032    2.3956    2.7074 H         1 <0>         0.2687
     38 H14        -4.4257    6.5456    6.1056 H         1 <0>         0.1527
     39 H15        -5.8389    8.4377    5.4086 H         1 <0>         0.1395
     40 H16        -7.4744    8.1488    3.5907 H         1 <0>         0.1340
     41 H17        -7.6902    5.9703    2.4635 H         1 <0>         0.1346
     42 H18        -6.2706    4.0807    3.1543 H         1 <0>         0.1381
@<TRIPOS>BOND
     1    1    2 1
     2    1   27 1
     3    1   28 1
     4    1   29 1
     5    2    3 1
     6    2   30 1
     7    2   31 1
     8    3    4 1
     9    3    5 1
    10    3    6 1
    11    5   32 1
    12    5   33 1
    13    5   34 1
    14    6   16 1
    15    6    7 1
    16    7   13 ar
    17    7    8 ar
    18    8   15 1
    19    8    9 ar
    20    9   35 1
    21    9   10 ar
    22   10   11 ar
    23   11   13 ar
    24   12   14 1
    25   13   14 1
    26   15   16 2
    27   15   18 1
    28   16   17 1
    29   17   36 1
    30   17   37 1
    31   18   19 2
    32   18   20 2
    33   18   21 1
    34   21   26 ar
    35   21   22 ar
    36   22   23 ar
    37   22   38 1
    38   23   24 ar
    39   23   39 1
    40   24   25 ar
    41   24   40 1
    42   25   26 ar
    43   25   41 1
    44   26   42 1
@<TRIPOS>MOLECULE
ZINC01933412
   42    44     0     0     0
SMALL
USER_CHARGES

@<TRIPOS>ATOM
      1 C1         -0.0190    1.0755    0.0126 C.3       1 <0>        -0.2144
      2 C2         -0.7325    1.5727    1.2714 C.3       1 <0>        -0.1851
      3 C3         -0.7542    3.1026    1.2748 C.3       1 <0>         0.0247
      4 H1         -1.2046    3.4616    0.3494 H         1 <0>         0.1039
      5 C4          0.6768    3.6326    1.3846 C.3       1 <0>        -0.2357
      6 N1         -1.5397    3.5773    2.4166 N.pl3     1 <0>        -0.1548
      7 C5         -2.6704    4.3617    2.3418 C.ar      1 <0>        -0.1955
      8 C6         -3.0996    4.6001    3.6559 C.ar      1 <0>         0.0246
      9 C7         -4.2864    5.4232    3.8722 C.ar      1 <0>        -0.1151
     10 N2         -4.9192    5.9167    2.8451 N.ar      1 <0>        -0.0230
     11 N3         -4.5027    5.6536    1.5378 N.ar      1 <0>        -0.1492
     12 H2         -2.2244    4.1665    0.1193 H         1 <0>         0.2526
     13 C8         -3.4055    4.9164    1.2801 C.ar      1 <0>         0.1687
     14 O1         -3.0502    4.7304    0.1268 O.3       1 <0>        -0.1950
     15 C9         -2.2020    3.9289    4.5081 C.2       1 <0>        -0.8804
     16 C10        -1.2723    3.3153    3.7295 C.2       1 <0>         0.2766
     17 N4         -0.2136    2.5519    4.1955 N.pl3     1 <0>        -0.4027
     18 S1         -2.2702    3.8933    6.2685 S.o2      1 <0>         2.7770
     19 O2         -3.6208    4.1508    6.6278 O.2       1 <0>        -0.9007
     20 O3         -1.5837    2.7184    6.6778 O.2       1 <0>        -0.9322
     21 C11        -1.3241    5.2594    6.8543 C.ar      1 <0>        -0.7409
     22 C12         0.0250    5.1054    7.1134 C.ar      1 <0>        -0.0353
     23 C13         0.7684    6.1784    7.5684 C.ar      1 <0>        -0.1502
     24 C14         0.1604    7.4027    7.7742 C.ar      1 <0>        -0.0744
     25 C15        -1.1898    7.5553    7.5200 C.ar      1 <0>        -0.1461
     26 C16        -1.9320    6.4837    7.0600 C.ar      1 <0>        -0.0221
     27 H3         -0.0035   -0.0144    0.0102 H         1 <0>         0.0924
     28 H4          1.0034    1.4534    0.0013 H         1 <0>         0.0777
     29 H5         -0.5484    1.4334   -0.8705 H         1 <0>         0.0802
     30 H6         -1.7548    1.1949    1.2828 H         1 <0>         0.1096
     31 H7         -0.2031    1.2150    2.1545 H         1 <0>         0.0916
     32 H8          1.1273    3.2736    2.3100 H         1 <0>         0.0859
     33 H9          1.2614    3.2795    0.5351 H         1 <0>         0.1002
     34 H10         0.6614    4.7225    1.3870 H         1 <0>         0.0998
     35 H11        -4.6366    5.6212    4.8744 H         1 <0>         0.1922
     36 H12         0.4041    2.1449    3.5679 H         1 <0>         0.2271
     37 H13        -0.0902    2.4246    5.1492 H         1 <0>         0.2689
     38 H14         0.4991    4.1476    6.9569 H         1 <0>         0.1383
     39 H15         1.8232    6.0590    7.7673 H         1 <0>         0.1346
     40 H16         0.7402    8.2398    8.1339 H         1 <0>         0.1340
     41 H17        -1.6648    8.5118    7.6811 H         1 <0>         0.1395
     42 H18        -2.9869    6.6029    6.8617 H         1 <0>         0.1526
@<TRIPOS>BOND
     1    1    2 1
     2    1   27 1
     3    1   28 1
     4    1   29 1
     5    2    3 1
     6    2   30 1
     7    2   31 1
     8    3    4 1
     9    3    5 1
    10    3    6 1
    11    5   32 1
    12    5   33 1
    13    5   34 1
    14    6   16 1
    15    6    7 1
    16    7   13 ar
    17    7    8 ar
    18    8   15 1
    19    8    9 ar
    20    9   35 1
    21    9   10 ar
    22   10   11 ar
    23   11   13 ar
    24   12   14 1
    25   13   14 1
    26   15   16 2
    27   15   18 1
    28   16   17 1
    29   17   36 1
    30   17   37 1
    31   18   19 2
    32   18   20 2
    33   18   21 1
    34   21   26 ar
    35   21   22 ar
    36   22   23 ar
    37   22   38 1
    38   23   24 ar
    39   23   39 1
    40   24   25 ar
    41   24   40 1
    42   25   26 ar
    43   25   41 1
    44   26   42 1
@<TRIPOS>MOLECULE
ZINC01933412
   42    44     0     0     0
SMALL
USER_CHARGES

@<TRIPOS>ATOM
      1 C1         -0.0190    1.0755    0.0126 C.3       1 <0>        -0.2144
      2 C2         -0.7325    1.5727    1.2714 C.3       1 <0>        -0.1851
      3 C3         -0.7542    3.1026    1.2748 C.3       1 <0>         0.0247
      4 H1         -1.2046    3.4616    0.3494 H         1 <0>         0.1039
      5 C4          0.6768    3.6326    1.3846 C.3       1 <0>        -0.2357
      6 N1         -1.5397    3.5773    2.4166 N.pl3     1 <0>        -0.1548
      7 C5         -2.6704    4.3617    2.3418 C.ar      1 <0>        -0.1955
      8 C6         -3.0996    4.6001    3.6559 C.ar      1 <0>         0.0246
      9 C7         -4.2864    5.4232    3.8722 C.ar      1 <0>        -0.1151
     10 N2         -4.9192    5.9167    2.8451 N.ar      1 <0>        -0.0230
     11 N3         -4.5027    5.6536    1.5378 N.ar      1 <0>        -0.1492
     12 H2         -2.2244    4.1665    0.1193 H         1 <0>         0.2526
     13 C8         -3.4055    4.9164    1.2801 C.ar      1 <0>         0.1687
     14 O1         -3.0502    4.7304    0.1268 O.3       1 <0>        -0.1950
     15 C9         -2.2020    3.9289    4.5081 C.2       1 <0>        -0.8804
     16 C10        -1.2723    3.3153    3.7295 C.2       1 <0>         0.2766
     17 N4         -0.2136    2.5519    4.1955 N.pl3     1 <0>        -0.4027
     18 S1         -2.2702    3.8933    6.2685 S.o2      1 <0>         2.7770
     19 O2         -3.6208    4.1508    6.6278 O.2       1 <0>        -0.9007
     20 O3         -1.5837    2.7184    6.6778 O.2       1 <0>        -0.9322
     21 C11        -1.3241    5.2594    6.8543 C.ar      1 <0>        -0.7409
     22 C12         0.0250    5.1054    7.1134 C.ar      1 <0>        -0.0353
     23 C13         0.7684    6.1784    7.5684 C.ar      1 <0>        -0.1502
     24 C14         0.1604    7.4027    7.7742 C.ar      1 <0>        -0.0744
     25 C15        -1.1898    7.5553    7.5200 C.ar      1 <0>        -0.1461
     26 C16        -1.9320    6.4837    7.0600 C.ar      1 <0>        -0.0221
     27 H3         -0.0035   -0.0144    0.0102 H         1 <0>         0.0924
     28 H4          1.0034    1.4534    0.0013 H         1 <0>         0.0777
     29 H5         -0.5484    1.4334   -0.8705 H         1 <0>         0.0802
     30 H6         -1.7548    1.1949    1.2828 H         1 <0>         0.1096
     31 H7         -0.2031    1.2150    2.1545 H         1 <0>         0.0916
     32 H8          1.1273    3.2736    2.3100 H         1 <0>         0.0859
     33 H9          1.2614    3.2795    0.5351 H         1 <0>         0.1002
     34 H10         0.6614    4.7225    1.3870 H         1 <0>         0.0998
     35 H11        -4.6366    5.6212    4.8744 H         1 <0>         0.1922
     36 H12         0.4041    2.1449    3.5679 H         1 <0>         0.2271
     37 H13        -0.0902    2.4246    5.1492 H         1 <0>         0.2689
     38 H14         0.4991    4.1476    6.9569 H         1 <0>         0.1383
     39 H15         1.8232    6.0590    7.7673 H         1 <0>         0.1346
     40 H16         0.7402    8.2398    8.1339 H         1 <0>         0.1340
     41 H17        -1.6648    8.5118    7.6811 H         1 <0>         0.1395
     42 H18        -2.9869    6.6029    6.8617 H         1 <0>         0.1526
@<TRIPOS>BOND
     1    1    2 1
     2    1   27 1
     3    1   28 1
     4    1   29 1
     5    2    3 1
     6    2   30 1
     7    2   31 1
     8    3    4 1
     9    3    5 1
    10    3    6 1
    11    5   32 1
    12    5   33 1
    13    5   34 1
    14    6   16 1
    15    6    7 1
    16    7   13 ar
    17    7    8 ar
    18    8   15 1
    19    8    9 ar
    20    9   35 1
    21    9   10 ar
    22   10   11 ar
    23   11   13 ar
    24   12   14 1
    25   13   14 1
    26   15   16 2
    27   15   18 1
    28   16   17 1
    29   17   36 1
    30   17   37 1
    31   18   19 2
    32   18   20 2
    33   18   21 1
    34   21   26 ar
    35   21   22 ar
    36   22   23 ar
    37   22   38 1
    38   23   24 ar
    39   23   39 1
    40   24   25 ar
    41   24   40 1
    42   25   26 ar
    43   25   41 1
    44   26   42 1
@<TRIPOS>MOLECULE
ZINC01943942
   45    46     0     0     0
SMALL
USER_CHARGES

@<TRIPOS>ATOM
      1 C1          7.4194    9.1638    3.4245 C.3       1 <0>        -0.1745
      2 C2          6.6425    8.2619    4.3487 C.ar      1 <0>        -0.0601
      3 C3          6.9270    8.2496    5.7022 C.ar      1 <0>        -0.1402
      4 C4          6.2165    7.4237    6.5535 C.ar      1 <0>        -0.1150
      5 C5          5.2196    6.6082    6.0545 C.ar      1 <0>        -0.1274
      6 C6          4.9314    6.6182    4.6961 C.ar      1 <0>         0.0642
      7 C7          5.6509    7.4449    3.8426 C.ar      1 <0>        -0.1073
      8 C8          5.3458    7.4545    2.3669 C.3       1 <0>        -0.1760
      9 N1          3.9230    5.7934    4.1875 N.am      1 <0>        -0.3220
     10 C9          3.7084    4.5785    4.7302 C.2       1 <0>         0.3532
     11 O1          4.3405    4.2294    5.7085 O.2       1 <0>        -0.3608
     12 C10         2.7063    3.6720    4.1371 C.ar      1 <0>        -0.1723
     13 C11         2.4822    2.4120    4.6983 C.ar      1 <0>        -0.0228
     14 C12         1.5460    1.5692    4.1421 C.ar      1 <0>        -0.2435
     15 C13         0.8238    1.9706    3.0243 C.ar      1 <0>         0.1240
     16 C14         1.0474    3.2210    2.4600 C.ar      1 <0>        -0.1624
     17 C15         1.9784    4.0716    3.0130 C.ar      1 <0>        -0.0665
     18 O2         -0.0981    1.1372    2.4792 O.3       1 <0>        -0.1691
     19 C16        -0.3411   -0.0957    3.1597 C.3       1 <0>         0.0080
     20 H1          0.5928   -0.4686    3.5804 H         1 <0>         0.0995
     21 C17        -1.3517    0.1337    4.2853 C.3       1 <0>        -0.2384
     22 C18        -0.8929   -1.1060    2.1873 C.2       1 <0>         0.3025
     23 O3         -1.1468   -0.7756    1.0483 O.2       1 <0>        -0.3139
     24 N2         -1.1043   -2.3768    2.5833 N.am      1 <0>        -0.3333
     25 N3         -1.6045   -3.2927    1.7018 N.3       1 <0>        -0.2085
     26 H2          8.2948    8.6331    3.0502 H         1 <0>         0.0866
     27 H3          6.7868    9.4573    2.5868 H         1 <0>         0.0813
     28 H4          7.7384   10.0531    3.9680 H         1 <0>         0.0817
     29 H5          7.7060    8.8863    6.0948 H         1 <0>         0.1289
     30 H6          6.4411    7.4164    7.6099 H         1 <0>         0.1323
     31 H7          4.6645    5.9638    6.7202 H         1 <0>         0.1645
     32 H8          4.5850    8.2066    2.1580 H         1 <0>         0.0800
     33 H9          6.2525    7.6905    1.8099 H         1 <0>         0.0898
     34 H10         4.9792    6.4733    2.0653 H         1 <0>         0.0771
     35 H11         3.3780    6.0957    3.4443 H         1 <0>         0.2334
     36 H12         3.0425    2.0996    5.5672 H         1 <0>         0.1582
     37 H13         1.3722    0.5953    4.5752 H         1 <0>         0.1386
     38 H14         0.4871    3.5276    1.5890 H         1 <0>         0.1536
     39 H15         2.1486    5.0446    2.5764 H         1 <0>         0.1304
     40 H16        -2.2855    0.5067    3.8647 H         1 <0>         0.1097
     41 H17        -0.9526    0.8645    4.9887 H         1 <0>         0.0943
     42 H18        -1.5370   -0.8066    4.8044 H         1 <0>         0.0817
     43 H19        -0.9012   -2.6411    3.4943 H         1 <0>         0.2201
     44 H20        -1.0262   -3.3543    0.8773 H         1 <0>         0.1632
     45 H21        -1.7084   -4.1961    2.1391 H         1 <0>         0.1575
@<TRIPOS>BOND
     1    1    2 1
     2    1   26 1
     3    1   27 1
     4    1   28 1
     5    2    7 ar
     6    2    3 ar
     7    3    4 ar
     8    3   29 1
     9    4    5 ar
    10    4   30 1
    11    5    6 ar
    12    5   31 1
    13    6    7 ar
    14    6    9 1
    15    7    8 1
    16    8   32 1
    17    8   33 1
    18    8   34 1
    19    9   10 am
    20    9   35 1
    21   10   11 2
    22   10   12 1
    23   12   17 ar
    24   12   13 ar
    25   13   14 ar
    26   13   36 1
    27   14   15 ar
    28   14   37 1
    29   15   16 ar
    30   15   18 1
    31   16   17 ar
    32   16   38 1
    33   17   39 1
    34   18   19 1
    35   19   20 1
    36   19   21 1
    37   19   22 1
    38   21   40 1
    39   21   41 1
    40   21   42 1
    41   22   23 2
    42   22   24 am
    43   24   25 1
    44   24   43 1
    45   25   44 1
    46   25   45 1
@<TRIPOS>MOLECULE
ZINC01966570
   41    43     0     0     0
SMALL
USER_CHARGES

@<TRIPOS>ATOM
      1 C1          4.3000   -0.5407   -3.7390 C.3       1 <0>        -0.1699
      2 C2          4.7075   -0.8748   -2.3271 C.2       1 <0>        -0.0511
      3 C3          5.7252   -1.7194   -2.0957 C.2       1 <0>        -0.2835
      4 S1          5.8103   -1.7855   -0.3161 S.3       1 <0>         0.4051
      5 C4          4.4776   -0.6776    0.0641 C.2       1 <0>        -0.1267
      6 C5          4.0044   -0.2879   -1.2018 C.2       1 <0>        -0.2288
      7 C6          2.9023    0.6281   -1.1958 C.2       1 <0>         0.3625
      8 O1          2.4216    1.0252   -2.2432 O.2       1 <0>        -0.3639
      9 N1          2.4066    1.0434   -0.0153 N.am      1 <0>        -0.2382
     10 C7          2.9328    0.6161    1.1612 C.2       1 <0>         0.0947
     11 N2          3.9339   -0.2223    1.1891 N.2       1 <0>        -0.1816
     12 C8          1.2803    1.9801    0.0005 C.3       1 <0>        -0.0538
     13 C9         -0.0144    1.2089    0.0087 C.2       1 <0>         0.2989
     14 O2          0.0021   -0.0041    0.0020 O.2       1 <0>        -0.2963
     15 N3         -1.1906    1.8669    0.0178 N.am      1 <0>        -0.3335
     16 N4         -2.3943    1.1500    0.0197 N.2       1 <0>         0.0295
     17 C10        -3.5270    1.7836    0.0285 C.2       1 <0>        -0.1112
     18 C11        -4.7932    1.0295    0.0304 C.ar      1 <0>        -0.0789
     19 C12        -6.0144    1.7073    0.0457 C.ar      1 <0>        -0.0951
     20 C13        -7.1956    0.9957    0.0421 C.ar      1 <0>        -0.1458
     21 C14        -7.1765   -0.3887    0.0349 C.ar      1 <0>        -0.0997
     22 C15        -5.9747   -1.0711    0.0250 C.ar      1 <0>        -0.1622
     23 C16        -4.7788   -0.3720    0.0227 C.ar      1 <0>         0.1140
     24 O3         -3.5974   -1.0417    0.0125 O.3       1 <0>        -0.2644
     25 C17         6.5890   -2.4386   -3.0995 C.3       1 <0>        -0.1234
     26 H1          4.8581    0.3306   -4.0817 H         1 <0>         0.0874
     27 H2          4.5147   -1.3886   -4.3895 H         1 <0>         0.0746
     28 H3          3.2325   -0.3224   -3.7671 H         1 <0>         0.1179
     29 H4          2.5134    0.9725    2.0904 H         1 <0>         0.1921
     30 H5          1.3211    2.6123   -0.8866 H         1 <0>         0.1483
     31 H6          1.3381    2.6027    0.8933 H         1 <0>         0.1080
     32 H7         -1.2038    2.8368    0.0232 H         1 <0>         0.2034
     33 H8         -3.5417    2.8635    0.0344 H         1 <0>         0.1150
     34 H9         -6.0335    2.7871    0.0562 H         1 <0>         0.1316
     35 H10        -8.1395    1.5204    0.0494 H         1 <0>         0.1338
     36 H11        -8.1061   -0.9385    0.0367 H         1 <0>         0.1341
     37 H12        -5.9679   -2.1511    0.0195 H         1 <0>         0.1455
     38 H13        -3.2503   -1.2404    0.8930 H         1 <0>         0.2399
     39 H14         7.3248   -3.0482   -2.5751 H         1 <0>         0.0851
     40 H15         5.9651   -3.0787   -3.7233 H         1 <0>         0.0944
     41 H16         7.1019   -1.7090   -3.7263 H         1 <0>         0.0922
@<TRIPOS>BOND
     1    1    2 1
     2    1   26 1
     3    1   27 1
     4    1   28 1
     5    2    6 1
     6    2    3 2
     7    3    4 1
     8    3   25 1
     9    4    5 1
    10    5   11 1
    11    5    6 2
    12    6    7 1
    13    7    8 2
    14    7    9 am
    15    9   10 1
    16    9   12 1
    17   10   11 2
    18   10   29 1
    19   12   13 1
    20   12   30 1
    21   12   31 1
    22   13   14 2
    23   13   15 am
    24   15   16 1
    25   15   32 1
    26   16   17 2
    27   17   18 1
    28   17   33 1
    29   18   23 ar
    30   18   19 ar
    31   19   20 ar
    32   19   34 1
    33   20   21 ar
    34   20   35 1
    35   21   22 ar
    36   21   36 1
    37   22   23 ar
    38   22   37 1
    39   23   24 1
    40   24   38 1
    41   25   39 1
    42   25   40 1
    43   25   41 1
@<TRIPOS>MOLECULE
ZINC02032655
   44    47     0     0     0
SMALL
USER_CHARGES

@<TRIPOS>ATOM
      1 C1         11.5366    0.8588   -1.6869 C.3       1 <0>        -0.2090
      2 C2         10.8015    0.8431   -0.3451 C.3       1 <0>        -0.1609
      3 C3          9.2915    0.8245   -0.5911 C.3       1 <0>        -0.1833
      4 C4          8.5564    0.8089    0.7507 C.3       1 <0>        -0.0058
      5 N1          7.1105    0.7910    0.5152 N.am      1 <0>        -0.3182
      6 C5          6.3442    1.8903    0.3982 C.2       1 <0>         0.3685
      7 O1          6.7354    3.0383    0.4693 O.2       1 <0>        -0.3144
      8 C6          4.9488    1.4683    0.1686 C.ar      1 <0>        -0.1673
      9 C7          4.9673    0.0609    0.1620 C.ar      1 <0>        -0.1670
     10 C8          6.3733   -0.3267    0.3878 C.2       1 <0>         0.3684
     11 O2          6.7942   -1.4648    0.4484 O.2       1 <0>        -0.3144
     12 C9          3.7839   -0.6561   -0.0377 C.ar      1 <0>         0.1772
     13 C10         2.5735    0.0330   -0.2295 C.ar      1 <0>        -0.1401
     14 C11         2.5547    1.4372   -0.2221 C.ar      1 <0>        -0.1402
     15 C12         3.7466    2.1559   -0.0227 C.ar      1 <0>         0.1775
     16 N2          3.7298    3.5364   -0.0155 N.pl3     1 <0>        -0.3931
     17 C13         1.2847    2.1603   -0.4230 C.2       1 <0>         0.3220
     18 O3          1.2691    3.3758   -0.4164 O.2       1 <0>        -0.2981
     19 C14         0.0319    1.4061   -0.6331 C.ar      1 <0>        -0.1093
     20 C15        -1.1705    2.0799   -0.8297 C.ar      1 <0>        -0.0801
     21 C16        -2.3389    1.3638   -1.0203 C.ar      1 <0>        -0.1146
     22 C17        -2.3199   -0.0193   -1.0285 C.ar      1 <0>        -0.1146
     23 C18        -1.1331   -0.7049   -0.8399 C.ar      1 <0>        -0.0801
     24 C19         0.0510   -0.0000   -0.6409 C.ar      1 <0>        -0.1094
     25 C20         1.3239   -0.7222   -0.4390 C.2       1 <0>         0.3219
     26 O4          1.3413   -1.9376   -0.4451 O.2       1 <0>        -0.2979
     27 N3          3.8035   -2.0366   -0.0450 N.pl3     1 <0>        -0.3932
     28 H1         12.6123    0.8721   -1.5117 H         1 <0>         0.0747
     29 H2         11.2722   -0.0322   -2.2564 H         1 <0>         0.0753
     30 H3         11.2489    1.7476   -2.2484 H         1 <0>         0.0751
     31 H4         11.0659    1.7341    0.2244 H         1 <0>         0.0821
     32 H5         11.0891   -0.0457    0.2164 H         1 <0>         0.0822
     33 H6          9.0271   -0.0664   -1.1606 H         1 <0>         0.0952
     34 H7          9.0038    1.7133   -1.1526 H         1 <0>         0.0945
     35 H8          8.8208    1.6998    1.3202 H         1 <0>         0.1110
     36 H9          8.8440   -0.0800    1.3122 H         1 <0>         0.1107
     37 H10         2.9199    4.0103    0.2304 H         1 <0>         0.2532
     38 H11         4.5278    4.0324   -0.2563 H         1 <0>         0.2375
     39 H12        -1.1926    3.1597   -0.8246 H         1 <0>         0.1567
     40 H13        -3.2714    1.8883   -1.1679 H         1 <0>         0.1398
     41 H14        -3.2375   -0.5675   -1.1827 H         1 <0>         0.1398
     42 H15        -1.1252   -1.7848   -0.8466 H         1 <0>         0.1568
     43 H16         3.1269   -2.5286   -0.5360 H         1 <0>         0.2532
     44 H17         4.4939   -2.5144    0.4407 H         1 <0>         0.2376
@<TRIPOS>BOND
     1    1    2 1
     2    1   28 1
     3    1   29 1
     4    1   30 1
     5    2    3 1
     6    2   31 1
     7    2   32 1
     8    3    4 1
     9    3   33 1
    10    3   34 1
    11    4    5 1
    12    4   35 1
    13    4   36 1
    14    5   10 am
    15    5    6 am
    16    6    7 2
    17    6    8 1
    18    8   15 ar
    19    8    9 ar
    20    9   10 1
    21    9   12 ar
    22   10   11 2
    23   12   13 ar
    24   12   27 1
    25   13   25 1
    26   13   14 ar
    27   14   15 ar
    28   14   17 1
    29   15   16 1
    30   16   37 1
    31   16   38 1
    32   17   18 2
    33   17   19 1
    34   19   24 ar
    35   19   20 ar
    36   20   21 ar
    37   20   39 1
    38   21   22 ar
    39   21   40 1
    40   22   23 ar
    41   22   41 1
    42   23   24 ar
    43   23   42 1
    44   24   25 1
    45   25   26 2
    46   27   43 1
    47   27   44 1
@<TRIPOS>MOLECULE
ZINC02055809
   42    45     0     0     0
SMALL
USER_CHARGES

@<TRIPOS>ATOM
      1 C1         -4.4038    3.6469   -7.0027 C.3       1 <0>        -0.2117
      2 C2         -4.1271    3.5518   -5.5009 C.3       1 <0>        -0.0162
      3 O1         -2.9133    2.8294   -5.2850 O.3       1 <0>        -0.2133
      4 C3         -2.5203    2.6539   -3.9949 C.ar      1 <0>         0.0936
      5 C4         -1.3516    1.9618   -3.7143 C.ar      1 <0>        -0.1471
      6 C5         -0.9518    1.7832   -2.4045 C.ar      1 <0>        -0.1056
      7 C6         -1.7203    2.2968   -1.3682 C.ar      1 <0>         0.0089
      8 C7         -2.8903    2.9896   -1.6500 C.ar      1 <0>        -0.1167
      9 C8         -3.2883    3.1677   -2.9605 C.ar      1 <0>        -0.2043
     10 N1         -1.3190    2.1113   -0.0405 N.pl3     1 <0>        -0.8132
     11 S1         -1.3420    3.3853    1.0172 S.o2      1 <0>         2.7689
     12 O2         -2.6448    3.9483    0.9465 O.2       1 <0>        -0.9199
     13 O3         -0.7813    2.9129    2.2343 O.2       1 <0>        -0.9112
     14 C9         -0.2328    4.6026    0.3907 C.ar      1 <0>        -0.7692
     15 C10        -0.6919    5.8286   -0.0080 C.ar      1 <0>         0.0309
     16 C11         0.1394    6.8317   -0.5050 C.ar      1 <0>        -0.1793
     17 C12         1.4984    6.6069   -0.6246 C.ar      1 <0>         0.1259
     18 C13         1.9493    5.3540   -0.2216 C.ar      1 <0>        -0.1172
     19 C14         1.1419    4.3344    0.2838 C.ar      1 <0>         0.0677
     20 C15         1.7745    3.1311    0.6402 C.ar      1 <0>        -0.1001
     21 C16         3.1295    3.0210    0.4762 C.ar      1 <0>        -0.1185
     22 C17         3.9223    4.0505   -0.0300 C.ar      1 <0>        -0.0338
     23 C18         3.3380    5.2513   -0.3924 C.ar      1 <0>        -0.1329
     24 C19         3.7313    6.5547   -0.9407 C.2       1 <0>         0.3665
     25 O4          4.8615    6.8944   -1.2373 O.2       1 <0>        -0.3069
     26 N2          2.6114    7.3160   -1.0582 N.am      1 <0>        -0.3073
     27 H1         -4.4989    2.6440   -7.4189 H         1 <0>         0.0891
     28 H2         -5.3296    4.1980   -7.1674 H         1 <0>         0.0874
     29 H3         -3.5798    4.1665   -7.4918 H         1 <0>         0.0884
     30 H4         -4.9511    3.0323   -5.0119 H         1 <0>         0.0758
     31 H5         -4.0319    4.5548   -5.0848 H         1 <0>         0.0743
     32 H6         -0.7541    1.5621   -4.5204 H         1 <0>         0.1473
     33 H7         -0.0415    1.2445   -2.1862 H         1 <0>         0.1372
     34 H8         -3.4888    3.3891   -0.8446 H         1 <0>         0.1773
     35 H9         -4.1979    3.7071   -3.1798 H         1 <0>         0.1417
     36 H10        -1.0274    1.2364    0.2603 H         1 <0>         0.2507
     37 H11        -1.7498    6.0308    0.0706 H         1 <0>         0.1572
     38 H12        -0.2787    7.7828   -0.8001 H         1 <0>         0.1416
     39 H13         1.2010    2.3063    1.0368 H         1 <0>         0.1489
     40 H14         3.6070    2.0925    0.7524 H         1 <0>         0.1397
     41 H15         4.9878    3.9113   -0.1384 H         1 <0>         0.1488
     42 H16         2.5921    8.2250   -1.3963 H         1 <0>         0.2566
@<TRIPOS>BOND
     1    1    2 1
     2    1   27 1
     3    1   28 1
     4    1   29 1
     5    2    3 1
     6    2   30 1
     7    2   31 1
     8    3    4 1
     9    4    9 ar
    10    4    5 ar
    11    5    6 ar
    12    5   32 1
    13    6    7 ar
    14    6   33 1
    15    7    8 ar
    16    7   10 1
    17    8    9 ar
    18    8   34 1
    19    9   35 1
    20   10   11 1
    21   10   36 1
    22   11   12 2
    23   11   13 2
    24   11   14 1
    25   14   19 ar
    26   14   15 ar
    27   15   16 ar
    28   15   37 1
    29   16   17 ar
    30   16   38 1
    31   17   26 1
    32   17   18 ar
    33   18   23 ar
    34   18   19 ar
    35   19   20 ar
    36   20   21 ar
    37   20   39 1
    38   21   22 ar
    39   21   40 1
    40   22   23 ar
    41   22   41 1
    42   23   24 1
    43   24   25 2
    44   24   26 am
    45   26   42 1
@<TRIPOS>MOLECULE
ZINC02064738
   41    43     0     0     0
SMALL
USER_CHARGES

@<TRIPOS>ATOM
      1 C1          8.4739   10.2526   -2.1468 C.ar      1 <0>        -0.1413
      2 C2          7.9424    9.1006   -1.5967 C.ar      1 <0>        -0.1123
      3 C3          6.5795    8.8801   -1.6353 C.ar      1 <0>        -0.1241
      4 C4          5.7427    9.8167   -2.2279 C.ar      1 <0>         0.0554
      5 C5          6.2802   10.9699   -2.7845 C.ar      1 <0>        -0.1594
      6 C6          7.6433   11.1871   -2.7376 C.ar      1 <0>        -0.1128
      7 N1          4.3616    9.5962   -2.2692 N.am      1 <0>        -0.3233
      8 C7          3.7481    8.9712   -1.2447 C.2       1 <0>         0.3030
      9 O1          4.4032    8.5256   -0.3264 O.2       1 <0>        -0.3434
     10 C8          2.2481    8.8261   -1.2402 C.3       1 <0>        -0.1724
     11 C9          1.8112    8.0849    0.0249 C.3       1 <0>        -0.1448
     12 H1          2.1350    8.6121    0.9223 H         1 <0>         0.1680
     13 C10         0.3079    7.8416    0.0346 C.2       1 <0>         0.1653
     14 N2         -0.0648    6.6226    0.0303 N.2       1 <0>        -0.2674
     15 C11         0.7936    5.5624    0.0300 C.2       1 <0>        -0.1031
     16 N3          0.5084    4.2881    0.0311 N.2       1 <0>         0.0496
     17 N4          1.5394    3.3395    0.0237 N.pl3     1 <0>        -0.2729
     18 C12         1.2371    1.9883    0.0249 C.2       1 <0>         0.0304
     19 C13         0.0141    1.4955    0.0321 C.2       1 <0>        -0.2390
     20 C14         0.0420   -0.0153    0.0307 C.3       1 <0>        -0.1212
     21 C15         1.4846   -0.3840    0.4468 C.3       1 <0>        -0.1584
     22 C16         2.2643    0.8801    0.0175 C.3       1 <0>        -0.1245
     23 S1          2.4042    6.3403    0.0199 S.3       1 <0>         0.0392
     24 O2         -0.5784    8.8578    0.0415 O.3       1 <0>        -0.2426
     25 H2          9.5398   10.4230   -2.1146 H         1 <0>         0.1299
     26 H3          8.5937    8.3726   -1.1360 H         1 <0>         0.1347
     27 H4          6.1651    7.9802   -1.2055 H         1 <0>         0.1662
     28 H5          5.6324   11.6982   -3.2497 H         1 <0>         0.1276
     29 H6          8.0614   12.0859   -3.1663 H         1 <0>         0.1310
     30 H7          3.8457    9.8931   -3.0351 H         1 <0>         0.2325
     31 H8          1.9350    8.2616   -2.1185 H         1 <0>         0.1207
     32 H9          1.7874    9.8138   -1.2600 H         1 <0>         0.1227
     33 H10         2.4651    3.6294    0.0178 H         1 <0>         0.2289
     34 H11        -0.8866    2.0916    0.0342 H         1 <0>         0.1569
     35 H12        -0.6735   -0.4088    0.7527 H         1 <0>         0.0860
     36 H13        -0.1766   -0.3979   -0.9663 H         1 <0>         0.0873
     37 H14         1.5532   -0.5383    1.5236 H         1 <0>         0.0917
     38 H15         1.8352   -1.2622   -0.0953 H         1 <0>         0.0872
     39 H16         3.0601    1.0955    0.7305 H         1 <0>         0.0865
     40 H17         2.6772    0.7498   -0.9829 H         1 <0>         0.0953
     41 H18        -1.5162    8.6223    0.0475 H         1 <0>         0.2668
@<TRIPOS>BOND
     1    1    6 ar
     2    1    2 ar
     3    1   25 1
     4    2    3 ar
     5    2   26 1
     6    3    4 ar
     7    3   27 1
     8    4    5 ar
     9    4    7 1
    10    5    6 ar
    11    5   28 1
    12    6   29 1
    13    7    8 am
    14    7   30 1
    15    8    9 2
    16    8   10 1
    17   10   11 1
    18   10   31 1
    19   10   32 1
    20   11   12 1
    21   11   23 1
    22   11   13 1
    23   13   14 2
    24   13   24 1
    25   14   15 1
    26   15   16 2
    27   15   23 1
    28   16   17 1
    29   17   18 1
    30   17   33 1
    31   18   22 1
    32   18   19 2
    33   19   20 1
    34   19   34 1
    35   20   21 1
    36   20   35 1
    37   20   36 1
    38   21   22 1
    39   21   37 1
    40   21   38 1
    41   22   39 1
    42   22   40 1
    43   24   41 1
@<TRIPOS>MOLECULE
ZINC02064740
   41    43     0     0     0
SMALL
USER_CHARGES

@<TRIPOS>ATOM
      1 C1         -0.0118    1.0759   -0.0076 C.ar      1 <0>        -0.1425
      2 C2          0.9213    1.7722    0.7385 C.ar      1 <0>        -0.1106
      3 C3          0.9084    3.1533    0.7484 C.ar      1 <0>        -0.1593
      4 C4         -0.0496    3.8424    0.0165 C.ar      1 <0>         0.0604
      5 C5         -0.9886    3.1401   -0.7276 C.ar      1 <0>        -0.1258
      6 C6         -0.9670    1.7592   -0.7376 C.ar      1 <0>        -0.1099
      7 N1         -0.0691    5.2415    0.0290 N.am      1 <0>        -0.3240
      8 C7         -1.2418    5.9000   -0.0584 C.2       1 <0>         0.3022
      9 O1         -2.2858    5.2827   -0.0515 O.2       1 <0>        -0.3421
     10 C8         -1.2558    7.4031   -0.1648 C.3       1 <0>        -0.1733
     11 C9         -2.7021    7.8949   -0.2501 C.3       1 <0>        -0.1452
     12 H1         -3.2382    7.4036   -1.0621 H         1 <0>         0.1683
     13 C10        -2.7663    9.4109   -0.3796 C.2       1 <0>         0.1652
     14 N2         -3.3497   10.0324    0.5682 N.2       1 <0>        -0.2671
     15 C11        -3.9003    9.4210    1.6562 C.2       1 <0>        -0.1017
     16 N3         -4.5139    9.9689    2.6703 N.2       1 <0>         0.0497
     17 N4         -5.0166    9.1656    3.7022 N.pl3     1 <0>        -0.2726
     18 C12        -5.6673    9.7466    4.7776 C.2       1 <0>         0.0302
     19 C13        -5.8638   11.0425    4.9216 C.2       1 <0>        -0.2392
     20 C14        -6.6055   11.3355    6.2051 C.3       1 <0>        -0.1213
     21 C15        -6.4685   10.0441    7.0439 C.3       1 <0>        -0.1584
     22 C16        -6.2533    8.9804    5.9407 C.3       1 <0>        -0.1243
     23 S1         -3.5787    7.6854    1.3571 S.3       1 <0>         0.0378
     24 O2         -2.2359   10.0588   -1.4365 O.3       1 <0>        -0.2428
     25 H2          0.0028   -0.0039   -0.0167 H         1 <0>         0.1302
     26 H3          1.6635    1.2356    1.3108 H         1 <0>         0.1314
     27 H4          1.6399    3.6966    1.3281 H         1 <0>         0.1288
     28 H5         -1.7347    3.6732   -1.2982 H         1 <0>         0.1571
     29 H6         -1.6972    1.2125   -1.3157 H         1 <0>         0.1344
     30 H7          0.7614    5.7375    0.1007 H         1 <0>         0.2325
     31 H8         -0.7768    7.8341    0.7144 H         1 <0>         0.1219
     32 H9         -0.7146    7.7091   -1.0601 H         1 <0>         0.1226
     33 H10        -4.9089    8.2024    3.6633 H         1 <0>         0.2294
     34 H11        -5.5389   11.7935    4.2166 H         1 <0>         0.1567
     35 H12        -6.1464   12.1763    6.7252 H         1 <0>         0.0854
     36 H13        -7.6547   11.5457    5.9976 H         1 <0>         0.0880
     37 H14        -5.6078   10.1006    7.7103 H         1 <0>         0.0912
     38 H15        -7.3815    9.8437    7.6045 H         1 <0>         0.0874
     39 H16        -7.2031    8.5273    5.6566 H         1 <0>         0.0968
     40 H17        -5.5547    8.2167    6.2825 H         1 <0>         0.0859
     41 H18        -2.3170   11.0224   -1.4465 H         1 <0>         0.2669
@<TRIPOS>BOND
     1    1    6 ar
     2    1    2 ar
     3    1   25 1
     4    2    3 ar
     5    2   26 1
     6    3    4 ar
     7    3   27 1
     8    4    5 ar
     9    4    7 1
    10    5    6 ar
    11    5   28 1
    12    6   29 1
    13    7    8 am
    14    7   30 1
    15    8    9 2
    16    8   10 1
    17   10   11 1
    18   10   31 1
    19   10   32 1
    20   11   12 1
    21   11   23 1
    22   11   13 1
    23   13   14 2
    24   13   24 1
    25   14   15 1
    26   15   16 2
    27   15   23 1
    28   16   17 1
    29   17   18 1
    30   17   33 1
    31   18   22 1
    32   18   19 2
    33   19   20 1
    34   19   34 1
    35   20   21 1
    36   20   35 1
    37   20   36 1
    38   21   22 1
    39   21   37 1
    40   21   38 1
    41   22   39 1
    42   22   40 1
    43   24   41 1
@<TRIPOS>MOLECULE
ZINC02089039
   40    42     0     0     0
SMALL
USER_CHARGES

@<TRIPOS>ATOM
      1 C1         -2.8053    4.0748    0.6027 C.3       1 <0>        -0.2107
      2 C2         -1.7476    3.6171   -0.4036 C.3       1 <0>        -0.0181
      3 O1         -1.5323    2.2115   -0.2623 O.3       1 <0>        -0.1904
      4 C3         -0.6154    1.6412   -1.0889 C.ar      1 <0>         0.0958
      5 C4          0.0572    2.4157   -2.0185 C.ar      1 <0>        -0.1824
      6 C5          0.9910    1.8446   -2.8704 C.ar      1 <0>        -0.1106
      7 C6          1.2624    0.4968   -2.8055 C.ar      1 <0>        -0.1152
      8 C7          0.5889   -0.3029   -1.8733 C.ar      1 <0>        -0.1083
      9 C8         -0.3554    0.2767   -1.0062 C.ar      1 <0>         0.0798
     10 O2         -1.0005   -0.4957   -0.0980 O.3       1 <0>        -0.0911
     11 C9         -1.1622   -1.8065   -0.4079 C.2       1 <0>         0.1901
     12 N1         -2.2920   -2.4316   -0.1459 N.2       1 <0>        -0.1628
     13 C10        -2.4893   -3.7015   -0.5999 C.ar      1 <0>         0.0476
     14 C11        -2.4512   -3.9676   -1.9741 C.ar      1 <0>        -0.1786
     15 C12        -2.6435   -5.2400   -2.4280 C.ar      1 <0>        -0.0812
     16 C13        -2.8896   -6.2771   -1.5210 C.ar      1 <0>        -0.0404
     17 C14        -2.9335   -6.0104   -0.1477 C.ar      1 <0>        -0.0716
     18 C15        -2.7360   -4.7391    0.3072 C.ar      1 <0>        -0.0912
     19 C16        -3.0969   -7.6113   -1.9981 C.1       1 <0>        -0.0852
     20 N2         -3.2613   -8.6696   -2.3765 N.1       1 <0>        -0.0498
     21 C17        -0.0344   -2.5105   -1.0477 C.2       1 <0>        -0.2083
     22 C18         0.8523   -1.7411   -1.7906 C.2       1 <0>        -0.0293
     23 C19         0.1438   -3.9657   -0.9047 C.2       1 <0>         0.3566
     24 O3         -0.1194   -4.5098    0.1507 O.2       1 <0>        -0.3486
     25 N3          0.5986   -4.6942   -1.9434 N.am      1 <0>        -0.4212
     26 H1         -2.9694    5.1469    0.4949 H         1 <0>         0.0877
     27 H2         -3.7386    3.5437    0.4157 H         1 <0>         0.0938
     28 H3         -2.4613    3.8598    1.6144 H         1 <0>         0.0932
     29 H4         -0.8142    4.1482   -0.2166 H         1 <0>         0.0739
     30 H5         -2.0915    3.8321   -1.4154 H         1 <0>         0.0738
     31 H6         -0.1470    3.4744   -2.0810 H         1 <0>         0.1478
     32 H7          1.5089    2.4618   -3.5896 H         1 <0>         0.1397
     33 H8          1.9913    0.0576   -3.4706 H         1 <0>         0.1390
     34 H9         -2.2657   -3.1666   -2.6743 H         1 <0>         0.1372
     35 H10        -2.6096   -5.4462   -3.4876 H         1 <0>         0.1360
     36 H11        -3.1241   -6.8107    0.5519 H         1 <0>         0.1439
     37 H12        -2.7703   -4.5333    1.3669 H         1 <0>         0.1569
     38 H13         1.7018   -2.1859   -2.2874 H         1 <0>         0.1494
     39 H14         0.8085   -4.2603   -2.7852 H         1 <0>         0.2140
     40 H15         0.7160   -5.6525   -1.8493 H         1 <0>         0.2390
@<TRIPOS>BOND
     1    1    2 1
     2    1   26 1
     3    1   27 1
     4    1   28 1
     5    2    3 1
     6    2   29 1
     7    2   30 1
     8    3    4 1
     9    4    9 ar
    10    4    5 ar
    11    5    6 ar
    12    5   31 1
    13    6    7 ar
    14    6   32 1
    15    7    8 ar
    16    7   33 1
    17    8   22 1
    18    8    9 ar
    19    9   10 1
    20   10   11 1
    21   11   12 2
    22   11   21 1
    23   12   13 1
    24   13   18 ar
    25   13   14 ar
    26   14   15 ar
    27   14   34 1
    28   15   16 ar
    29   15   35 1
    30   16   17 ar
    31   16   19 1
    32   17   18 ar
    33   17   36 1
    34   18   37 1
    35   19   20 3
    36   21   22 2
    37   21   23 1
    38   22   38 1
    39   23   24 2
    40   23   25 am
    41   25   39 1
    42   25   40 1
@<TRIPOS>MOLECULE
ZINC02090285
   45    47     0     0     0
SMALL
USER_CHARGES

@<TRIPOS>ATOM
      1 C1          2.0543    5.7595   -2.4466 C.3       1 <0>        -0.1624
      2 C2          1.5881    5.1102   -1.1690 C.2       1 <0>         0.1525
      3 C3          1.0852    3.8690   -1.2198 C.2       1 <0>        -0.2280
      4 C4          0.6111    3.1796    0.0268 C.3       1 <0>         0.0943
      5 C5         -0.8955    3.1207    0.0571 C.ar      1 <0>        -0.1204
      6 C6         -1.8745    4.0888    0.0746 C.ar      1 <0>        -0.0576
      7 C7         -3.2085    3.7221    0.1009 C.ar      1 <0>        -0.1572
      8 C8         -3.5539    2.3829    0.1097 C.ar      1 <0>        -0.0910
      9 C9         -2.5756    1.4106    0.0932 C.ar      1 <0>        -0.1586
     10 C10        -1.2301    1.7716    0.0612 C.ar      1 <0>         0.0800
     11 N1         -0.0752    0.9879    0.0476 N.am      1 <0>        -0.2997
     12 C11         1.0444    1.7327    0.0247 C.2       1 <0>         0.3337
     13 O1          2.1850    1.3209    0.0060 O.2       1 <0>        -0.3162
     14 C12         1.1351    3.8812    1.2467 C.2       1 <0>        -0.3304
     15 C13         1.6433    5.1389    1.1516 C.2       1 <0>         0.2665
     16 O2          1.6910    5.7939   -0.0201 O.3       1 <0>        -0.1379
     17 N2          2.1180    5.7535    2.2792 N.pl3     1 <0>        -0.3827
     18 C14         1.1006    3.2351    2.4919 C.2       1 <0>         0.3666
     19 O3          0.0606    3.1863    3.1242 O.2       1 <0>        -0.3423
     20 O4          2.2206    2.6673    2.9894 O.3       1 <0>        -0.2562
     21 C15         2.1129    2.0266    4.2622 C.3       1 <0>        -0.0585
     22 C16         0.9999    3.1991   -2.4652 C.2       1 <0>         0.3758
     23 O5          1.3819    3.7507   -3.4800 O.2       1 <0>        -0.3860
     24 O6          0.4951    1.9494   -2.5259 O.3       1 <0>        -0.2509
     25 C17         0.4389    1.3342   -3.8144 C.3       1 <0>         0.0266
     26 C18        -0.1491   -0.0474   -3.6863 C.2       1 <0>        -0.1679
     27 C19        -1.0620   -0.4520   -4.5342 C.2       1 <0>        -0.2060
     28 H1          2.4320    6.7586   -2.2296 H         1 <0>         0.0829
     29 H2          2.8485    5.1592   -2.8904 H         1 <0>         0.1343
     30 H3          1.2194    5.8302   -3.1438 H         1 <0>         0.1305
     31 H4         -1.6013    5.1337    0.0682 H         1 <0>         0.1307
     32 H5         -3.9781    4.4797    0.1148 H         1 <0>         0.1319
     33 H6         -4.5951    2.0968    0.1293 H         1 <0>         0.1313
     34 H7         -2.8533    0.3669    0.1000 H         1 <0>         0.1289
     35 H8         -0.0797    0.0179    0.0502 H         1 <0>         0.2425
     36 H9          2.1596    5.2657    3.1165 H         1 <0>         0.2576
     37 H10         2.4128    6.6769    2.2407 H         1 <0>         0.2312
     38 H11         1.7966    2.7542    5.0096 H         1 <0>         0.0700
     39 H12         1.3784    1.2233    4.2036 H         1 <0>         0.0824
     40 H13         3.0814    1.6136    4.5442 H         1 <0>         0.1043
     41 H14        -0.1849    1.9345   -4.4768 H         1 <0>         0.0910
     42 H15         1.4451    1.2640   -4.2277 H         1 <0>         0.0979
     43 H16         0.1822   -0.7040   -2.8954 H         1 <0>         0.1335
     44 H17        -1.4834   -1.4421   -4.4424 H         1 <0>         0.1184
     45 H18        -1.3933    0.2047   -5.3251 H         1 <0>         0.1145
@<TRIPOS>BOND
     1    1    2 1
     2    1   28 1
     3    1   29 1
     4    1   30 1
     5    2   16 1
     6    2    3 2
     7    3    4 1
     8    3   22 1
     9    4   12 1
    10    4    5 1
    11    4   14 1
    12    5   10 ar
    13    5    6 ar
    14    6    7 ar
    15    6   31 1
    16    7    8 ar
    17    7   32 1
    18    8    9 ar
    19    8   33 1
    20    9   10 ar
    21    9   34 1
    22   10   11 1
    23   11   12 am
    24   11   35 1
    25   12   13 2
    26   14   15 2
    27   14   18 1
    28   15   16 1
    29   15   17 1
    30   17   36 1
    31   17   37 1
    32   18   19 2
    33   18   20 1
    34   20   21 1
    35   21   38 1
    36   21   39 1
    37   21   40 1
    38   22   23 2
    39   22   24 1
    40   24   25 1
    41   25   26 1
    42   25   41 1
    43   25   42 1
    44   26   27 2
    45   26   43 1
    46   27   44 1
    47   27   45 1
@<TRIPOS>MOLECULE
ZINC02091772
   41    42     0     0     0
SMALL
USER_CHARGES

@<TRIPOS>ATOM
      1 C1         -3.4301    4.9565    0.0441 C.3       1 <0>        -0.1571
      2 C2         -2.7960    3.5894    0.0345 C.2       1 <0>        -0.0243
      3 C3         -1.4688    3.3255    0.0327 C.2       1 <0>        -0.2352
      4 C4         -1.3062    1.9364    0.0188 C.2       1 <0>        -0.1001
      5 N1         -2.4932    1.3859    0.0219 N.2       1 <0>        -0.0135
      6 N2         -3.4500    2.4090    0.0318 N.pl3     1 <0>        -0.1256
      7 C5         -4.9040    2.2293    0.0381 C.3       1 <0>         0.0520
      8 C6         -5.3955    2.1610    1.4610 C.2       1 <0>         0.0336
      9 C7         -5.8439    3.2499    2.0572 C.2       1 <0>        -0.3456
     10 N3         -5.3768    0.9522    2.1451 N.pl3     1 <0>        -0.2556
     11 N4         -5.8338    0.8888    3.4680 N.am      1 <0>        -0.2751
     12 C8         -5.8156   -0.2841    4.1317 C.2       1 <0>         0.3513
     13 O1         -5.4026   -1.2871    3.5825 O.2       1 <0>        -0.3686
     14 C9         -6.2971   -0.3509    5.5254 C.ar      1 <0>        -0.1655
     15 C10        -6.7668    0.8019    6.1603 C.ar      1 <0>        -0.0659
     16 C11        -7.2205    0.7342    7.4587 C.ar      1 <0>        -0.2313
     17 C12        -7.2010   -0.4763    8.1415 C.ar      1 <0>         0.1241
     18 C13        -6.7291   -1.6241    7.5154 C.ar      1 <0>        -0.1690
     19 C14        -6.2791   -1.5659    6.2153 C.ar      1 <0>        -0.0247
     20 O2         -7.6441   -0.5378    9.4227 O.3       1 <0>        -0.2049
     21 C15        -8.1154    0.6790   10.0053 C.3       1 <0>        -0.0650
     22 N5         -0.0144    1.2138    0.0087 N.pl3     1 <0>         0.5827
     23 O3          0.0021   -0.0041    0.0020 O.2       1 <0>        -0.3196
     24 O4          1.0320    1.8371    0.0021 O.3       1 <0>        -0.3399
     25 H1         -3.5782    5.2811    1.0741 H         1 <0>         0.1051
     26 H2         -2.7780    5.6631   -0.4693 H         1 <0>         0.1062
     27 H3         -4.3927    4.9141   -0.4655 H         1 <0>         0.0845
     28 H4         -0.6753    4.0581    0.0386 H         1 <0>         0.1816
     29 H5         -5.3763    3.0703   -0.4696 H         1 <0>         0.1278
     30 H6         -5.1579    1.3038   -0.4788 H         1 <0>         0.1299
     31 H7         -6.1962    3.2010    3.0770 H         1 <0>         0.1146
     32 H8         -5.8585    4.1897    1.5253 H         1 <0>         0.1234
     33 H9         -5.0473    0.1520    1.7069 H         1 <0>         0.2829
     34 H10        -6.1633    1.6890    3.9061 H         1 <0>         0.2535
     35 H11        -6.7778    1.7438    5.6320 H         1 <0>         0.1221
     36 H12        -7.5882    1.6238    7.9485 H         1 <0>         0.1394
     37 H13        -6.7152   -2.5627    8.0494 H         1 <0>         0.1531
     38 H14        -5.9129   -2.4582    5.7294 H         1 <0>         0.1646
     39 H15        -8.4391    0.4902   11.0289 H         1 <0>         0.1132
     40 H16        -7.3118    1.4154   10.0084 H         1 <0>         0.0706
     41 H17        -8.9546    1.0594    9.4231 H         1 <0>         0.0700
@<TRIPOS>BOND
     1    1    2 1
     2    1   25 1
     3    1   26 1
     4    1   27 1
     5    2    6 1
     6    2    3 2
     7    3    4 1
     8    3   28 1
     9    4    5 2
    10    4   22 1
    11    5    6 1
    12    6    7 1
    13    7    8 1
    14    7   29 1
    15    7   30 1
    16    8    9 2
    17    8   10 1
    18    9   31 1
    19    9   32 1
    20   10   11 1
    21   10   33 1
    22   11   12 am
    23   11   34 1
    24   12   13 2
    25   12   14 1
    26   14   19 ar
    27   14   15 ar
    28   15   16 ar
    29   15   35 1
    30   16   17 ar
    31   16   36 1
    32   17   18 ar
    33   17   20 1
    34   18   19 ar
    35   18   37 1
    36   19   38 1
    37   20   21 1
    38   21   39 1
    39   21   40 1
    40   21   41 1
    41   22   23 2
    42   22   24 1
@<TRIPOS>MOLECULE
ZINC02103242
   47    50     0     0     0
SMALL
USER_CHARGES

@<TRIPOS>ATOM
      1 C1         -0.6119    6.3618   -4.6287 C.ar      1 <0>        -0.1207
      2 C2         -1.7005    6.2820   -3.7805 C.ar      1 <0>        -0.1303
      3 C3         -1.5087    6.0722   -2.4277 C.ar      1 <0>        -0.1195
      4 C4         -0.2283    5.9426   -1.9230 C.ar      1 <0>        -0.1120
      5 C5          0.8606    6.0282   -2.7704 C.ar      1 <0>        -0.1025
      6 C6          0.6685    6.2323   -4.1241 C.ar      1 <0>        -0.1319
      7 C7         -0.0191    5.7144   -0.4482 C.3       1 <0>         0.0276
      8 N1         -0.0094    4.2754   -0.1733 N.am      1 <0>        -0.3406
      9 C8         -1.2685    3.6173    0.1402 C.3       1 <0>        -0.0275
     10 C9         -1.1831    2.1272    0.0192 C.2       1 <0>         0.3013
     11 O1         -2.2127    1.4922   -0.0710 O.2       1 <0>        -0.3547
     12 N2         -0.0178    1.4638    0.0101 N.am      1 <0>        -0.2660
     13 C10         0.0021   -0.0041    0.0020 C.3       1 <0>        -0.0134
     14 C11         1.1187   -0.4724    0.9443 C.3       1 <0>        -0.1822
     15 C12         2.4566    0.0526    0.4181 C.3       1 <0>        -0.1187
     16 C13         2.3715    1.5347    0.1816 C.2       1 <0>        -0.0435
     17 C14         1.1951    2.1659    0.0023 C.2       1 <0>        -0.0354
     18 C15         1.1610    3.6193   -0.2218 C.2       1 <0>         0.3518
     19 O2          2.1909    4.2254   -0.4509 O.2       1 <0>        -0.3490
     20 C16         3.6124    2.3206    0.1442 C.ar      1 <0>        -0.0338
     21 C17         3.9613    3.1362    1.2261 C.ar      1 <0>        -0.1112
     22 C18         5.1307    3.8720    1.1832 C.ar      1 <0>         0.0645
     23 C19         5.9592    3.8035    0.0696 C.ar      1 <0>        -0.1373
     24 C20         5.6229    3.0005   -1.0031 C.ar      1 <0>        -0.1372
     25 C21         4.4571    2.2528   -0.9745 C.ar      1 <0>         0.0797
     26 O3          4.1305    1.4598   -2.0276 O.3       1 <0>        -0.2952
     27 O4          5.4716    4.6649    2.2340 O.3       1 <0>        -0.2903
     28 H1         -0.7618    6.5250   -5.6857 H         1 <0>         0.1294
     29 H2         -2.7008    6.3831   -4.1748 H         1 <0>         0.1303
     30 H3         -2.3592    6.0098   -1.7650 H         1 <0>         0.1247
     31 H4          1.8611    5.9314   -2.3755 H         1 <0>         0.1508
     32 H5          1.5190    6.2943   -4.7868 H         1 <0>         0.1314
     33 H6         -0.8277    6.1856    0.1106 H         1 <0>         0.0927
     34 H7          0.9334    6.1487   -0.1448 H         1 <0>         0.1283
     35 H8         -1.5565    3.8748    1.1595 H         1 <0>         0.1097
     36 H9         -2.0359    3.9809   -0.5431 H         1 <0>         0.1261
     37 H10        -0.9574   -0.3869    0.3497 H         1 <0>         0.1238
     38 H11         0.1981   -0.3638   -1.0081 H         1 <0>         0.0953
     39 H12         0.9404   -0.0806    1.9457 H         1 <0>         0.0957
     40 H13         1.1394   -1.5618    0.9737 H         1 <0>         0.0984
     41 H14         3.2384   -0.1525    1.1494 H         1 <0>         0.1031
     42 H15         2.6981   -0.4482   -0.5194 H         1 <0>         0.1132
     43 H16         3.3186    3.1910    2.0922 H         1 <0>         0.1408
     44 H17         6.8714    4.3811    0.0428 H         1 <0>         0.1393
     45 H18         6.2726    2.9524   -1.8644 H         1 <0>         0.1406
     46 H19         3.5989    1.9025   -2.7033 H         1 <0>         0.2315
     47 H20         6.0079    4.2201    2.9046 H         1 <0>         0.2227
@<TRIPOS>BOND
     1    1    6 ar
     2    1    2 ar
     3    1   28 1
     4    2    3 ar
     5    2   29 1
     6    3    4 ar
     7    3   30 1
     8    4    5 ar
     9    4    7 1
    10    5    6 ar
    11    5   31 1
    12    6   32 1
    13    7    8 1
    14    7   33 1
    15    7   34 1
    16    8   18 am
    17    8    9 1
    18    9   10 1
    19    9   35 1
    20    9   36 1
    21   10   11 2
    22   10   12 am
    23   12   17 1
    24   12   13 1
    25   13   14 1
    26   13   37 1
    27   13   38 1
    28   14   15 1
    29   14   39 1
    30   14   40 1
    31   15   16 1
    32   15   41 1
    33   15   42 1
    34   16   17 2
    35   16   20 1
    36   17   18 1
    37   18   19 2
    38   20   25 ar
    39   20   21 ar
    40   21   22 ar
    41   21   43 1
    42   22   23 ar
    43   22   27 1
    44   23   24 ar
    45   23   44 1
    46   24   25 ar
    47   24   45 1
    48   25   26 1
    49   26   46 1
    50   27   47 1
@<TRIPOS>MOLECULE
ZINC02107081
   44    46     0     0     0
SMALL
USER_CHARGES

@<TRIPOS>ATOM
      1 C1          2.8469    6.1659    1.1567 C.3       1 <0>        -0.2108
      2 C2          2.8749    4.6744    0.8168 C.3       1 <0>        -0.1608
      3 C3          1.4419    4.1520    0.6952 C.3       1 <0>        -0.1593
      4 C4          1.4700    2.6605    0.3553 C.3       1 <0>        -0.1882
      5 C5          0.0370    2.1382    0.2336 C.3       1 <0>        -0.0474
      6 N1          0.0638    0.7100   -0.0918 N.pl3     1 <0>        -0.1728
      7 C6          0.0743   -0.2223    0.9234 C.cat     1 <0>         0.3261
      8 H1         -0.0085   -0.4130    2.9549 H         1 <0>         0.3246
      9 C7          0.1006   -1.6562    0.5962 C.2       1 <0>        -0.2874
     10 C8          0.1146   -2.0430   -0.7370 C.2       1 <0>         0.1214
     11 C9          0.1033   -1.0621   -1.7390 C.2       1 <0>        -0.3377
     12 C10         0.0726    0.3112   -1.4058 C.2       1 <0>         0.2609
     13 N2          0.0574    1.2146   -2.3773 N.2       1 <0>        -0.2934
     14 C11         0.0658    0.8605   -3.6628 C.2       1 <0>         0.2284
     15 C12         0.0488    1.8653   -4.6475 C.2       1 <0>        -0.1639
     16 C13         0.0577    1.5162   -5.9652 C.2       1 <0>        -0.0086
     17 C14         0.0841    0.1609   -6.3215 C.2       1 <0>        -0.1736
     18 C15         0.1001   -0.7917   -5.3623 C.2       1 <0>         0.0042
     19 N3          0.0911   -0.4526   -4.0421 N.am      1 <0>        -0.1340
     20 C16         0.1172   -1.4303   -3.1096 C.2       1 <0>         0.3557
     21 O1          0.1392   -2.6030   -3.4383 O.2       1 <0>        -0.2993
     22 C17         0.1126   -2.6630    1.6634 C.2       1 <0>         0.3800
     23 O2         -0.0051   -2.3198    2.8252 O.2       1 <0>        -0.3916
     24 N4          0.2539   -3.9679    1.3573 N.am      1 <0>        -0.3993
     25 H2          2.3281    6.7088    0.3668 H         1 <0>         0.0781
     26 H3          2.3250    6.3133    2.1022 H         1 <0>         0.0779
     27 H4          3.8677    6.5380    1.2433 H         1 <0>         0.0891
     28 H5          3.3937    4.1313    1.6068 H         1 <0>         0.0843
     29 H6          3.3968    4.5269   -0.1287 H         1 <0>         0.0865
     30 H7          0.9231    4.6950   -0.0948 H         1 <0>         0.0947
     31 H8          0.9200    4.2994    1.6407 H         1 <0>         0.0838
     32 H9          1.9888    2.1175    1.1453 H         1 <0>         0.0860
     33 H10         1.9919    2.5130   -0.5902 H         1 <0>         0.1126
     34 H11        -0.4818    2.6811   -0.5563 H         1 <0>         0.1562
     35 H12        -0.4849    2.2856    1.1792 H         1 <0>         0.1029
     36 H13         0.1344   -3.0903   -1.0001 H         1 <0>         0.1807
     37 H14         0.0292    2.9065   -4.3611 H         1 <0>         0.1904
     38 H15         0.0448    2.2789   -6.7296 H         1 <0>         0.1750
     39 H16         0.0912   -0.1227   -7.3636 H         1 <0>         0.1837
     40 H17         0.1209   -1.8337   -5.6453 H         1 <0>         0.2120
     41 H18         0.3477   -4.2415    0.4314 H         1 <0>         0.2248
     42 H19         0.2617   -4.6336    2.0628 H         1 <0>         0.2572
     43 N5          0.0654    0.2374    2.1725 N.pl3     1 <0>        -0.3167
     44 H20         0.1330    1.2467    2.3486 H         1 <0>         0.2676
@<TRIPOS>BOND
     1    1    2 1
     2    1   25 1
     3    1   26 1
     4    1   27 1
     5    2    3 1
     6    2   28 1
     7    2   29 1
     8    3    4 1
     9    3   30 1
    10    3   31 1
    11    4    5 1
    12    4   32 1
    13    4   33 1
    14    5    6 1
    15    5   34 1
    16    5   35 1
    17    6   12 1
    18    6    7 1
    19    7    9 1
    20    7   43 2
    21    8   43 1
    22    9   10 2
    23    9   22 1
    24   10   11 1
    25   10   36 1
    26   11   20 1
    27   11   12 2
    28   12   13 1
    29   13   14 2
    30   14   19 1
    31   14   15 1
    32   15   16 2
    33   15   37 1
    34   16   17 1
    35   16   38 1
    36   17   18 2
    37   17   39 1
    38   18   19 1
    39   18   40 1
    40   19   20 am
    41   20   21 2
    42   22   23 2
    43   22   24 am
    44   24   41 1
    45   24   42 1
    46   43   44 1
@<TRIPOS>MOLECULE
ZINC02119734
   46    49     0     0     0
SMALL
USER_CHARGES

@<TRIPOS>ATOM
      1 C1          6.6087    1.7836    1.7270 C.3       1 <0>        -0.2364
      2 C2          5.9135    3.1036    2.0665 C.3       1 <0>         0.0780
      3 C3          6.0983    4.0968    0.9120 C.3       1 <0>        -0.1890
      4 C4          5.5935    3.4367   -0.3734 C.3       1 <0>        -0.1054
      5 C5          4.2354    2.8270   -0.1319 C.ar      1 <0>        -0.2204
      6 C6          3.7725    2.5775    1.1513 C.ar      1 <0>         0.1815
      7 C7          2.5130    2.0130    1.3481 C.ar      1 <0>        -0.2383
      8 C8          1.7155    1.6867    0.2681 C.ar      1 <0>         0.1958
      9 C9          2.1798    1.9380   -1.0321 C.ar      1 <0>        -0.2943
     10 C10         3.4468    2.5149   -1.2294 C.ar      1 <0>         0.1881
     11 O1          3.9032    2.7735   -2.4778 O.3       1 <0>        -0.1894
     12 C11         3.3468    2.0482   -3.5741 C.3       1 <0>         0.0955
     13 H1          3.7184    2.4633   -4.5109 H         1 <0>         0.1499
     14 C12         1.8158    2.1616   -3.5350 C.3       1 <0>        -0.0125
     15 H2          1.4235    1.6403   -4.2929 H         1 <0>         0.0971
     16 C13         1.3584    1.6013   -2.2000 C.2       1 <0>         0.2548
     17 O2          0.3650    0.9105   -2.1042 O.2       1 <0>        -0.2703
     18 O3          1.4263    3.5319   -3.6469 O.3       1 <0>        -0.3265
     19 C14         3.7468    0.5987   -3.4728 C.ar      1 <0>        -0.1390
     20 C15         4.4903    0.1619   -2.3920 C.ar      1 <0>        -0.0979
     21 C16         4.8533   -1.1674   -2.2939 C.ar      1 <0>        -0.1516
     22 C17         4.4810   -2.0620   -3.2867 C.ar      1 <0>         0.0811
     23 C18         3.7398   -1.6200   -4.3730 C.ar      1 <0>        -0.1499
     24 C19         3.3744   -0.2908   -4.4636 C.ar      1 <0>        -0.1004
     25 O4          4.8413   -3.3691   -3.1951 O.3       1 <0>        -0.2906
     26 O5          0.4926    1.1337    0.4629 O.3       1 <0>        -0.2752
     27 O6          4.5153    2.8781    2.2472 O.3       1 <0>        -0.1976
     28 C20         6.5121    3.6863    3.3484 C.3       1 <0>        -0.1981
     29 H3          7.6725    1.9628    1.5711 H         1 <0>         0.0854
     30 H4          6.4753    1.0807    2.5493 H         1 <0>         0.0891
     31 H5          6.1735    1.3670    0.8186 H         1 <0>         0.0874
     32 H6          7.1542    4.3461    0.8071 H         1 <0>         0.0946
     33 H7          5.5248    5.0023    1.1100 H         1 <0>         0.1041
     34 H8          6.2917    2.6575   -0.6793 H         1 <0>         0.0891
     35 H9          5.5195    4.1869   -1.1607 H         1 <0>         0.1094
     36 H10         2.1600    1.8258    2.3514 H         1 <0>         0.1589
     37 H11         0.4697    3.6716   -3.6287 H         1 <0>         0.2262
     38 H12         4.7836    0.8596   -1.6215 H         1 <0>         0.1504
     39 H13         5.4303   -1.5090   -1.4473 H         1 <0>         0.1432
     40 H14         3.4485   -2.3146   -5.1470 H         1 <0>         0.1445
     41 H15         2.7972    0.0536   -5.3089 H         1 <0>         0.1349
     42 H16         5.6924   -3.5723   -3.6069 H         1 <0>         0.2297
     43 H17         0.4983    0.1671    0.4922 H         1 <0>         0.2468
     44 H18         6.0083    4.6216    3.5921 H         1 <0>         0.0899
     45 H19         6.3790    2.9781    4.1662 H         1 <0>         0.0892
     46 H20         7.5755    3.8743    3.2000 H         1 <0>         0.0882
@<TRIPOS>BOND
     1    1    2 1
     2    1   29 1
     3    1   30 1
     4    1   31 1
     5    2   27 1
     6    2    3 1
     7    2   28 1
     8    3    4 1
     9    3   32 1
    10    3   33 1
    11    4    5 1
    12    4   34 1
    13    4   35 1
    14    5   10 ar
    15    5    6 ar
    16    6    7 ar
    17    6   27 1
    18    7    8 ar
    19    7   36 1
    20    8    9 ar
    21    8   26 1
    22    9   16 1
    23    9   10 ar
    24   10   11 1
    25   11   12 1
    26   12   13 1
    27   12   14 1
    28   12   19 1
    29   14   15 1
    30   14   16 1
    31   14   18 1
    32   16   17 2
    33   18   37 1
    34   19   24 ar
    35   19   20 ar
    36   20   21 ar
    37   20   38 1
    38   21   22 ar
    39   21   39 1
    40   22   23 ar
    41   22   25 1
    42   23   24 ar
    43   23   40 1
    44   24   41 1
    45   25   42 1
    46   26   43 1
    47   28   44 1
    48   28   45 1
    49   28   46 1
@<TRIPOS>MOLECULE
ZINC02123307
   40    43     0     0     0
SMALL
USER_CHARGES

@<TRIPOS>ATOM
      1 C1          1.2061   -0.6821   -0.0157 C.ar      1 <0>        -0.2118
      2 C2          0.0021   -0.0041    0.0020 C.ar      1 <0>        -0.0767
      3 C3         -0.0167    1.3823    0.0096 C.ar      1 <0>        -0.0329
      4 C4          1.1783    2.0925    0.0020 C.ar      1 <0>         0.0669
      5 C5          2.3861    1.4122   -0.0170 C.ar      1 <0>        -0.1993
      6 C6          2.4012    0.0242   -0.0257 C.ar      1 <0>         0.1181
      7 N1          3.6202   -0.6626   -0.0441 N.pl3     1 <0>        -0.3810
      8 C7          3.6355   -2.1274   -0.0528 C.3       1 <0>         0.0357
      9 C8          5.0615   -2.6147   -0.0725 C.2       1 <0>        -0.0123
     10 C9          5.6426   -3.0252   -1.2300 C.2       1 <0>        -0.2296
     11 C10         6.9782   -3.4763   -1.2223 C.2       1 <0>         0.3513
     12 O1          7.4871   -3.8418   -2.2668 O.2       1 <0>        -0.2919
     13 O2          7.7032   -3.5136   -0.0937 O.3       1 <0>        -0.1680
     14 C11         7.1859   -3.1198    1.0907 C.ar      1 <0>         0.1257
     15 C12         5.8600   -2.6528    1.1542 C.ar      1 <0>        -0.1425
     16 C13         5.3201   -2.2377    2.3774 C.ar      1 <0>        -0.0884
     17 C14         6.0957   -2.2842    3.5157 C.ar      1 <0>         0.0219
     18 C15         7.4145   -2.7429    3.4495 C.ar      1 <0>         0.0983
     19 C16         7.9517   -3.1655    2.2462 C.ar      1 <0>        -0.1667
     20 O3          8.1707   -2.7850    4.5769 O.3       1 <0>        -0.2710
     21 O4          5.5766   -1.8822    4.7070 O.3       1 <0>        -0.2693
     22 O5          1.1798    3.4535    0.0180 O.3       1 <0>        -0.2041
     23 C17        -0.0448    4.1030   -0.3401 C.3       1 <0>        -0.0513
     24 C18        -1.1925    3.4114    0.4080 C.3       1 <0>        -0.0511
     25 O6         -1.2135    2.0332    0.0189 O.3       1 <0>        -0.2068
     26 H1          1.2174   -1.7620   -0.0214 H         1 <0>         0.1328
     27 H2         -0.9266   -0.5554    0.0096 H         1 <0>         0.1444
     28 H3          3.3154    1.9623   -0.0249 H         1 <0>         0.1468
     29 H4          4.4550   -0.1687   -0.0511 H         1 <0>         0.2372
     30 H5          3.1361   -2.5014    0.8409 H         1 <0>         0.0901
     31 H6          3.1151   -2.4910   -0.9389 H         1 <0>         0.0949
     32 H7          5.0830   -3.0056   -2.1535 H         1 <0>         0.1758
     33 H8          4.3012   -1.8833    2.4287 H         1 <0>         0.1619
     34 H9          8.9714   -3.5190    2.2046 H         1 <0>         0.1680
     35 H10         8.1110   -3.6208    5.0595 H         1 <0>         0.2331
     36 H11         5.1475   -2.5894    5.2078 H         1 <0>         0.2245
     37 H12        -0.0005    5.1540   -0.0546 H         1 <0>         0.1205
     38 H13        -0.2037    4.0207   -1.4153 H         1 <0>         0.0948
     39 H14        -1.0299    3.4888    1.4830 H         1 <0>         0.0925
     40 H15        -2.1396    3.8819    0.1440 H         1 <0>         0.1197
@<TRIPOS>BOND
     1    1    6 ar
     2    1    2 ar
     3    1   26 1
     4    2    3 ar
     5    2   27 1
     6    3   25 1
     7    3    4 ar
     8    4    5 ar
     9    4   22 1
    10    5    6 ar
    11    5   28 1
    12    6    7 1
    13    7    8 1
    14    7   29 1
    15    8    9 1
    16    8   30 1
    17    8   31 1
    18    9   15 1
    19    9   10 2
    20   10   11 1
    21   10   32 1
    22   11   12 2
    23   11   13 1
    24   13   14 1
    25   14   19 ar
    26   14   15 ar
    27   15   16 ar
    28   16   17 ar
    29   16   33 1
    30   17   18 ar
    31   17   21 1
    32   18   19 ar
    33   18   20 1
    34   19   34 1
    35   20   35 1
    36   21   36 1
    37   22   23 1
    38   23   24 1
    39   23   37 1
    40   23   38 1
    41   24   25 1
    42   24   39 1
    43   24   40 1
@<TRIPOS>MOLECULE
ZINC02134257
   46    49     0     0     0
SMALL
USER_CHARGES

@<TRIPOS>ATOM
      1 C1         -3.7402    7.5341    1.5049 C.3       1 <0>        -0.0641
      2 N1         -4.6789    6.4094    1.5030 N.pl3     1 <0>        -0.1289
      3 C2         -6.0544    6.5271    1.5105 C.ar      1 <0>         0.0133
      4 C3         -6.9026    7.6318    1.5205 C.ar      1 <0>        -0.1176
      5 C4         -8.2674    7.4540    1.5271 C.ar      1 <0>        -0.1731
      6 C5         -8.8148    6.1738    1.5229 C.ar      1 <0>         0.0575
      7 C6         -7.9909    5.0661    1.5120 C.ar      1 <0>        -0.0934
      8 C7         -6.6049    5.2343    1.5058 C.ar      1 <0>        -0.0462
      9 C8         -5.4724    4.2986    1.4948 C.2       1 <0>        -0.0072
     10 C9         -4.3170    5.0764    1.4936 C.2       1 <0>        -0.1166
     11 C10        -3.0657    4.4166    1.4888 C.2       1 <0>         0.3511
     12 O1         -2.0249    5.0523    1.4924 O.2       1 <0>        -0.3851
     13 N2         -3.0508    3.0663    1.4757 N.am      1 <0>        -0.2513
     14 C11        -4.2133    2.3659    1.4774 C.2       1 <0>         0.0375
     15 N3         -5.3739    2.9572    1.4866 N.2       1 <0>        -0.1725
     16 C12        -1.7714    2.3528    1.4658 C.3       1 <0>        -0.0220
     17 C13        -1.3328    2.1122    0.0198 C.3       1 <0>        -0.1402
     18 C14        -0.0167    1.3782    0.0096 C.ar      1 <0>        -0.0798
     19 C15         1.1693    2.0887    0.0021 C.ar      1 <0>        -0.1148
     20 C16         2.3791    1.4201   -0.0131 C.ar      1 <0>        -0.1394
     21 C17         2.4050    0.0347   -0.0208 C.ar      1 <0>         0.0480
     22 C18         1.2113   -0.6805   -0.0132 C.ar      1 <0>         0.0481
     23 C19         0.0021   -0.0041    0.0020 C.ar      1 <0>        -0.1409
     24 O2          1.2315   -2.0402   -0.0203 O.3       1 <0>        -0.2766
     25 O3          3.5943   -0.6246   -0.0362 O.3       1 <0>        -0.2765
     26 O4        -10.1652    6.0140    1.5290 O.3       1 <0>        -0.2109
     27 C20       -10.9591    7.2022    1.5402 C.3       1 <0>        -0.0618
     28 H1         -3.5020    7.8068    2.5330 H         1 <0>         0.0873
     29 H2         -2.8268    7.2459    0.9845 H         1 <0>         0.1195
     30 H3         -4.1933    8.3864    0.9986 H         1 <0>         0.0859
     31 H4         -6.4888    8.6294    1.5235 H         1 <0>         0.1318
     32 H5         -8.9194    8.3150    1.5353 H         1 <0>         0.1383
     33 H6         -8.4167    4.0736    1.5088 H         1 <0>         0.1577
     34 H7         -4.1749    1.2866    1.4714 H         1 <0>         0.1902
     35 H8         -1.8851    1.3957    1.9749 H         1 <0>         0.1007
     36 H9         -1.0181    2.9503    1.9793 H         1 <0>         0.1317
     37 H10        -1.2191    3.0692   -0.4893 H         1 <0>         0.1114
     38 H11        -2.0860    1.5147   -0.4937 H         1 <0>         0.0919
     39 H12         1.1505    3.1686    0.0078 H         1 <0>         0.1439
     40 H13         3.3041    1.9775   -0.0194 H         1 <0>         0.1459
     41 H14        -0.9258   -0.5567    0.0076 H         1 <0>         0.1414
     42 H15         1.2287   -2.4291   -0.9056 H         1 <0>         0.2230
     43 H16         3.9297   -0.8103   -0.9240 H         1 <0>         0.2231
     44 H17       -10.7290    7.7845    2.4324 H         1 <0>         0.0658
     45 H18       -10.7383    7.7950    0.6525 H         1 <0>         0.0654
     46 H19       -12.0154    6.9334    1.5442 H         1 <0>         0.1081
@<TRIPOS>BOND
     1    1    2 1
     2    1   28 1
     3    1   29 1
     4    1   30 1
     5    2   10 1
     6    2    3 1
     7    3    8 ar
     8    3    4 ar
     9    4    5 ar
    10    4   31 1
    11    5    6 ar
    12    5   32 1
    13    6    7 ar
    14    6   26 1
    15    7    8 ar
    16    7   33 1
    17    8    9 1
    18    9   15 1
    19    9   10 2
    20   10   11 1
    21   11   12 2
    22   11   13 am
    23   13   14 1
    24   13   16 1
    25   14   15 2
    26   14   34 1
    27   16   17 1
    28   16   35 1
    29   16   36 1
    30   17   18 1
    31   17   37 1
    32   17   38 1
    33   18   23 ar
    34   18   19 ar
    35   19   20 ar
    36   19   39 1
    37   20   21 ar
    38   20   40 1
    39   21   22 ar
    40   21   25 1
    41   22   23 ar
    42   22   24 1
    43   23   41 1
    44   24   42 1
    45   25   43 1
    46   26   27 1
    47   27   44 1
    48   27   45 1
    49   27   46 1
@<TRIPOS>MOLECULE
ZINC02139584
   44    47     0     0     0
SMALL
USER_CHARGES

@<TRIPOS>ATOM
      1 C1         -6.9246   -0.9536   -1.1225 C.ar      1 <0>        -0.1632
      2 C2         -6.4951   -0.2359   -0.0175 C.ar      1 <0>        -0.0797
      3 C3         -5.2616    0.3830   -0.0229 C.ar      1 <0>        -0.1596
      4 C4         -4.4460    0.2993   -1.1438 C.ar      1 <0>         0.1339
      5 C5         -4.8778   -0.4265   -2.2641 C.ar      1 <0>        -0.1787
      6 C6         -6.1265   -1.0523   -2.2414 C.ar      1 <0>        -0.0820
      7 C7         -4.0183   -0.5285   -3.4584 C.2       1 <0>         0.3622
      8 O1         -2.8939   -0.0660   -3.4396 O.2       1 <0>        -0.3895
      9 N1         -4.4792   -1.1344   -4.5706 N.am      1 <0>        -0.4234
     10 N2         -3.2040    0.9276   -1.1536 N.am      1 <0>        -0.3094
     11 C8         -2.5622    1.1699    0.0065 C.2       1 <0>         0.3680
     12 O2         -3.0178    0.7489    1.0533 O.2       1 <0>        -0.3376
     13 C9         -1.3139    1.9417    0.0072 C.2       1 <0>        -0.3429
     14 C10        -1.3417    3.3375    0.0307 C.2       1 <0>         0.2114
     15 C11        -0.0631    4.0560    0.0267 C.ar      1 <0>        -0.1252
     16 C12        -0.0506    5.4559    0.0451 C.ar      1 <0>        -0.0530
     17 C13         1.1374    6.1277    0.0462 C.ar      1 <0>        -0.1711
     18 C14         2.3340    5.4262    0.0315 C.ar      1 <0>        -0.0672
     19 C15         2.3441    4.0476    0.0135 C.ar      1 <0>        -0.1297
     20 C16         1.1473    3.3362    0.0057 C.ar      1 <0>         0.1397
     21 N3          1.1361    1.9560   -0.0206 N.am      1 <0>        -0.2424
     22 C17        -0.0215    1.2633   -0.0099 C.2       1 <0>         0.3695
     23 O3          0.0125    0.0456   -0.0198 O.2       1 <0>        -0.3510
     24 C18         2.3896    1.1933   -0.0649 C.3       1 <0>        -0.0180
     25 C19         3.4878    1.9588    0.6746 C.3       1 <0>        -0.1804
     26 C20         3.6668    3.3231    0.0014 C.3       1 <0>        -0.1180
     27 O4         -2.5130    4.0071    0.0502 O.3       1 <0>        -0.2472
     28 H1         -7.8895   -1.4383   -1.1064 H         1 <0>         0.1324
     29 H2         -7.1276   -0.1646    0.8550 H         1 <0>         0.1364
     30 H3         -4.9321    0.9367    0.8439 H         1 <0>         0.1731
     31 H4         -6.4658   -1.6131   -3.0997 H         1 <0>         0.1245
     32 H5         -5.3762   -1.5034   -4.5856 H         1 <0>         0.2184
     33 H6         -3.9140   -1.2016   -5.3560 H         1 <0>         0.2321
     34 H7         -2.8004    1.1910   -1.9954 H         1 <0>         0.2725
     35 H8         -0.9810    6.0041    0.0586 H         1 <0>         0.1503
     36 H9          1.1460    7.2076    0.0589 H         1 <0>         0.1378
     37 H10         3.2692    5.9664    0.0347 H         1 <0>         0.1360
     38 H11         2.2408    0.2237    0.4103 H         1 <0>         0.1311
     39 H12         2.6872    1.0451   -1.1030 H         1 <0>         0.0951
     40 H13         3.1985    2.0994    1.7160 H         1 <0>         0.1009
     41 H14         4.4212    1.3980    0.6263 H         1 <0>         0.0992
     42 H15         4.4077    3.9061    0.5484 H         1 <0>         0.0952
     43 H16         3.9968    3.1822   -1.0278 H         1 <0>         0.0971
     44 H17        -3.2920    3.4392   -0.0261 H         1 <0>         0.2525
@<TRIPOS>BOND
     1    1    6 ar
     2    1    2 ar
     3    1   28 1
     4    2    3 ar
     5    2   29 1
     6    3    4 ar
     7    3   30 1
     8    4    5 ar
     9    4   10 1
    10    5    6 ar
    11    5    7 1
    12    6   31 1
    13    7    8 2
    14    7    9 am
    15    9   32 1
    16    9   33 1
    17   10   11 am
    18   10   34 1
    19   11   12 2
    20   11   13 1
    21   13   22 1
    22   13   14 2
    23   14   15 1
    24   14   27 1
    25   15   20 ar
    26   15   16 ar
    27   16   17 ar
    28   16   35 1
    29   17   18 ar
    30   17   36 1
    31   18   19 ar
    32   18   37 1
    33   19   26 1
    34   19   20 ar
    35   20   21 1
    36   21   22 am
    37   21   24 1
    38   22   23 2
    39   24   25 1
    40   24   38 1
    41   24   39 1
    42   25   26 1
    43   25   40 1
    44   25   41 1
    45   26   42 1
    46   26   43 1
    47   27   44 1
@<TRIPOS>MOLECULE
ZINC02193841
   46    48     0     0     0
SMALL
USER_CHARGES

@<TRIPOS>ATOM
      1 C1         -9.2326    1.0048   -2.8785 C.3       1 <0>        -0.2364
      2 C2         -7.9738    1.0772   -2.0532 C.2       1 <0>         0.2976
      3 O1         -8.0410    1.0638   -0.8422 O.2       1 <0>        -0.3510
      4 N1         -6.7733    1.1569   -2.6606 N.am      1 <0>        -0.3282
      5 C3         -5.5979    1.0890   -1.9010 C.ar      1 <0>         0.0345
      6 C4         -5.5630    0.3235   -0.7429 C.ar      1 <0>        -0.0987
      7 C5         -4.4050    0.2560    0.0054 C.ar      1 <0>        -0.1584
      8 C6         -3.2744    0.9539   -0.4001 C.ar      1 <0>         0.0567
      9 C7         -3.3111    1.7238   -1.5559 C.ar      1 <0>        -0.1567
     10 C8         -4.4678    1.7867   -2.3067 C.ar      1 <0>        -0.1350
     11 N2         -2.1008    0.8861    0.3583 N.pl3     1 <0>        -0.3488
     12 C9         -1.2950    2.0098    0.4933 C.2       1 <0>         0.0317
     13 C10        -0.0654    2.0020    0.0126 C.2       1 <0>        -0.2021
     14 C11        -1.8245    3.2375    1.1886 C.3       1 <0>        -0.1466
     15 H1         -0.9892    3.9182    1.3528 H         1 <0>         0.1612
     16 C12        -2.8082    3.9201    0.2570 C.2       1 <0>         0.3215
     17 O2         -2.4733    4.2936   -0.8467 O.2       1 <0>        -0.3137
     18 N3         -4.0703    4.0959    0.7025 N.am      1 <0>        -0.3381
     19 C13        -4.4554    3.6904    1.9180 C.2       1 <0>         0.4054
     20 O3         -5.6103    3.8890    2.2381 O.2       1 <0>        -0.3419
     21 N4         -3.6616    3.0817    2.8064 N.am      1 <0>        -0.2626
     22 C14        -2.3644    2.8173    2.5426 C.2       1 <0>         0.3246
     23 O4         -1.6569    2.2650    3.3576 O.2       1 <0>        -0.2941
     24 C15        -4.1930    2.7069    4.0484 C.ar      1 <0>         0.0500
     25 C16        -4.3889    1.3648    4.3446 C.ar      1 <0>        -0.0971
     26 C17        -4.9073    0.9982    5.5713 C.ar      1 <0>        -0.1228
     27 C18        -5.2421    1.9671    6.4994 C.ar      1 <0>        -0.1146
     28 C19        -5.0530    3.3049    6.2052 C.ar      1 <0>        -0.1228
     29 C20        -4.5297    3.6773    4.9824 C.ar      1 <0>        -0.0971
     30 H2         -8.9748    1.0291   -3.9373 H         1 <0>         0.0772
     31 H3         -9.7613    0.0783   -2.6544 H         1 <0>         0.1135
     32 H4         -9.8723    1.8548   -2.6408 H         1 <0>         0.1144
     33 H5         -6.7231    1.2613   -3.6237 H         1 <0>         0.2311
     34 H6         -6.4421   -0.2188   -0.4274 H         1 <0>         0.1640
     35 H7         -4.3778   -0.3396    0.9059 H         1 <0>         0.1355
     36 H8         -2.4336    2.2700   -1.8690 H         1 <0>         0.1573
     37 H9         -4.4951    2.3817   -3.2076 H         1 <0>         0.1345
     38 H10        -1.8496    0.0545    0.7899 H         1 <0>         0.2433
     39 H11         0.3426    1.0968   -0.4123 H         1 <0>         0.1324
     40 H12         0.5309    2.9021    0.0401 H         1 <0>         0.1282
     41 H13        -4.7172    4.5298    0.1244 H         1 <0>         0.2743
     42 H14        -4.1321    0.6079    3.6183 H         1 <0>         0.1374
     43 H15        -5.0561   -0.0459    5.8039 H         1 <0>         0.1350
     44 H16        -5.6518    1.6783    7.4560 H         1 <0>         0.1321
     45 H17        -5.3151    4.0594    6.9321 H         1 <0>         0.1352
     46 H18        -4.3822    4.7223    4.7531 H         1 <0>         0.1380
@<TRIPOS>BOND
     1    1    2 1
     2    1   30 1
     3    1   31 1
     4    1   32 1
     5    2    3 2
     6    2    4 am
     7    4    5 1
     8    4   33 1
     9    5   10 ar
    10    5    6 ar
    11    6    7 ar
    12    6   34 1
    13    7    8 ar
    14    7   35 1
    15    8    9 ar
    16    8   11 1
    17    9   10 ar
    18    9   36 1
    19   10   37 1
    20   11   12 1
    21   11   38 1
    22   12   13 2
    23   12   14 1
    24   13   39 1
    25   13   40 1
    26   14   15 1
    27   14   22 1
    28   14   16 1
    29   16   17 2
    30   16   18 am
    31   18   19 am
    32   18   41 1
    33   19   20 2
    34   19   21 am
    35   21   22 am
    36   21   24 1
    37   22   23 2
    38   24   29 ar
    39   24   25 ar
    40   25   26 ar
    41   25   42 1
    42   26   27 ar
    43   26   43 1
    44   27   28 ar
    45   27   44 1
    46   28   29 ar
    47   28   45 1
    48   29   46 1
@<TRIPOS>MOLECULE
ZINC02195168
   44    46     0     0     0
SMALL
USER_CHARGES

@<TRIPOS>ATOM
      1 C1         -6.0772    6.0299    0.2043 C.3       1 <0>        -0.1781
      2 C2         -4.7991    5.2323    0.1692 C.ar      1 <0>        -0.0646
      3 C3         -4.4705    4.4084    1.2303 C.ar      1 <0>        -0.1210
      4 C4         -3.2997    3.6765    1.2013 C.ar      1 <0>        -0.0997
      5 C5         -2.4521    3.7685    0.1052 C.ar      1 <0>         0.0526
      6 C6         -2.7819    4.6007   -0.9558 C.ar      1 <0>        -0.0959
      7 C7         -3.9572    5.3259   -0.9234 C.ar      1 <0>        -0.0713
      8 C8         -4.3188    6.2252   -2.0774 C.3       1 <0>        -0.1750
      9 N1         -1.2633    3.0270    0.0728 N.am      1 <0>        -0.2571
     10 C9         -0.0810    3.6756    0.1060 C.2       1 <0>         0.3761
     11 O1         -0.0361    4.8901    0.1642 O.2       1 <0>        -0.3415
     12 C10         1.1547    2.8737    0.0703 C.2       1 <0>        -0.4210
     13 C11         2.4025    3.4689    0.1015 C.2       1 <0>         0.1751
     14 N2          3.5113    2.7065    0.2008 N.pl3     1 <0>        -0.2246
     15 C12         4.7636    3.3100    0.3452 C.ar      1 <0>         0.0909
     16 C13         4.8683    4.6955    0.3809 C.ar      1 <0>        -0.2304
     17 C14         6.1052    5.2926    0.5279 C.ar      1 <0>        -0.0477
     18 C15         7.2432    4.5156    0.6305 C.ar      1 <0>        -0.2250
     19 C16         7.1462    3.1300    0.5903 C.ar      1 <0>         0.1514
     20 C17         5.9045    2.5267    0.4475 C.ar      1 <0>        -0.2391
     21 N3          8.2971    2.3454    0.6931 N.pl3     1 <0>        -0.4137
     22 C18         1.0025    1.4093    0.0003 C.2       1 <0>         0.3781
     23 O2          1.9765    0.6808   -0.0320 O.2       1 <0>        -0.3885
     24 N4         -0.2457    0.8986   -0.0264 N.am      1 <0>        -0.3363
     25 C19        -1.3272    1.6899    0.0040 C.2       1 <0>         0.4078
     26 O3         -2.4239    1.1671   -0.0275 O.2       1 <0>        -0.3606
     27 H1         -5.8874    7.0004    0.6628 H         1 <0>         0.0875
     28 H2         -6.4438    6.1737   -0.8121 H         1 <0>         0.0856
     29 H3         -6.8249    5.4926    0.7876 H         1 <0>         0.0817
     30 H4         -5.1303    4.3370    2.0824 H         1 <0>         0.1346
     31 H5         -3.0434    3.0336    2.0303 H         1 <0>         0.1390
     32 H6         -2.1225    4.6777   -1.8076 H         1 <0>         0.1398
     33 H7         -3.9080    7.2201   -1.9052 H         1 <0>         0.0883
     34 H8         -3.9062    5.8164   -2.9997 H         1 <0>         0.0815
     35 H9         -5.4036    6.2897   -2.1618 H         1 <0>         0.0848
     36 H10         2.4895    4.5439    0.0463 H         1 <0>         0.1865
     37 H11         3.4393    1.7396    0.1720 H         1 <0>         0.2851
     38 H12         3.9813    5.3058    0.2972 H         1 <0>         0.1358
     39 H13         6.1834    6.3694    0.5587 H         1 <0>         0.1370
     40 H14         8.2092    4.9857    0.7416 H         1 <0>         0.1343
     41 H15         5.8263    1.4500    0.4164 H         1 <0>         0.1409
     42 H16         8.2288    1.3782    0.6647 H         1 <0>         0.2230
     43 H17         9.1647    2.7676    0.7929 H         1 <0>         0.2241
     44 H18        -0.3634   -0.0631   -0.0727 H         1 <0>         0.2698
@<TRIPOS>BOND
     1    1    2 1
     2    1   27 1
     3    1   28 1
     4    1   29 1
     5    2    7 ar
     6    2    3 ar
     7    3    4 ar
     8    3   30 1
     9    4    5 ar
    10    4   31 1
    11    5    6 ar
    12    5    9 1
    13    6    7 ar
    14    6   32 1
    15    7    8 1
    16    8   33 1
    17    8   34 1
    18    8   35 1
    19    9   25 am
    20    9   10 am
    21   10   11 2
    22   10   12 1
    23   12   13 2
    24   12   22 1
    25   13   14 1
    26   13   36 1
    27   14   15 1
    28   14   37 1
    29   15   20 ar
    30   15   16 ar
    31   16   17 ar
    32   16   38 1
    33   17   18 ar
    34   17   39 1
    35   18   19 ar
    36   18   40 1
    37   19   20 ar
    38   19   21 1
    39   20   41 1
    40   21   42 1
    41   21   43 1
    42   22   23 2
    43   22   24 am
    44   24   25 am
    45   24   44 1
    46   25   26 2
@<TRIPOS>MOLECULE
ZINC02201250
   38    40     0     0     0
SMALL
USER_CHARGES

@<TRIPOS>ATOM
      1 C1          4.8237   15.1552    1.2446 C.3       1 <0>        -0.2117
      2 C2          4.4964   13.6874    0.9630 C.3       1 <0>        -0.1635
      3 C3          3.4709   13.1887    1.9831 C.3       1 <0>        -0.0662
      4 C4          3.1485   11.7430    1.7057 C.2       1 <0>        -0.2150
      5 N1          3.7170   10.6453    2.1636 N.2       1 <0>        -0.0602
      6 N2          3.3227    9.4950    1.8292 N.2       1 <0>        -0.0916
      7 C5          2.3085    9.3188    0.9934 C.2       1 <0>        -0.0644
      8 S1          1.8888   11.0262    0.6544 S.3       1 <0>         0.1821
      9 N3          1.7386    8.1456    0.5135 N.am      1 <0>        -0.2650
     10 C6          2.2260    6.9511    0.9034 C.2       1 <0>         0.3827
     11 O1          3.1641    6.8999    1.6750 O.2       1 <0>        -0.2789
     12 C7          1.6204    5.7043    0.3934 C.2       1 <0>        -0.1671
     13 C8          2.0216    4.3883    0.7113 C.2       1 <0>        -0.1674
     14 C9          1.1794    3.5715    0.0095 C.2       1 <0>        -0.0670
     15 N4          0.3328    4.3827   -0.6869 N.pl3     1 <0>        -0.0848
     16 H1         -0.3933    4.0656   -1.2970 H         1 <0>         0.3004
     17 N5          0.6056    5.6141   -0.4436 N.2       1 <0>        -0.0835
     18 C10         1.1887    2.0921    0.0019 C.ar      1 <0>        -0.0503
     19 C11         2.3987    1.3990   -0.0138 C.ar      1 <0>        -0.0888
     20 C12         2.4014    0.0193   -0.0217 C.ar      1 <0>        -0.1333
     21 C13         1.2073   -0.6804   -0.0136 C.ar      1 <0>        -0.1060
     22 C14         0.0021   -0.0041    0.0020 C.ar      1 <0>        -0.1487
     23 C15        -0.0167    1.3812    0.0096 C.ar      1 <0>         0.0735
     24 O2         -1.2008    2.0470    0.0189 O.3       1 <0>        -0.3038
     25 H2          5.2354   15.2493    2.2494 H         1 <0>         0.0767
     26 H3          5.5543   15.5104    0.5178 H         1 <0>         0.0795
     27 H4          3.9146   15.7515    1.1671 H         1 <0>         0.0722
     28 H5          5.4055   13.0910    1.0405 H         1 <0>         0.0986
     29 H6          4.0847   13.5932   -0.0419 H         1 <0>         0.0855
     30 H7          2.5618   13.7851    1.9056 H         1 <0>         0.0987
     31 H8          3.8826   13.2829    2.9879 H         1 <0>         0.1186
     32 H9          0.9901    8.1865   -0.1021 H         1 <0>         0.2612
     33 H10         2.8244    4.0901    1.3692 H         1 <0>         0.1822
     34 H11         3.3325    1.9416   -0.0198 H         1 <0>         0.1463
     35 H12         3.3389   -0.5167   -0.0346 H         1 <0>         0.1391
     36 H13         1.2173   -1.7603   -0.0198 H         1 <0>         0.1373
     37 H14        -0.9262   -0.5561    0.0079 H         1 <0>         0.1446
     38 H15        -1.5394    2.2350    0.9049 H         1 <0>         0.2379
@<TRIPOS>BOND
     1    1    2 1
     2    1   25 1
     3    1   26 1
     4    1   27 1
     5    2    3 1
     6    2   28 1
     7    2   29 1
     8    3    4 1
     9    3   30 1
    10    3   31 1
    11    4    8 1
    12    4    5 2
    13    5    6 1
    14    6    7 2
    15    7    8 1
    16    7    9 1
    17    9   10 am
    18    9   32 1
    19   10   11 2
    20   10   12 1
    21   12   17 2
    22   12   13 1
    23   13   14 2
    24   13   33 1
    25   14   15 1
    26   14   18 1
    27   15   16 1
    28   15   17 1
    29   18   23 ar
    30   18   19 ar
    31   19   20 ar
    32   19   34 1
    33   20   21 ar
    34   20   35 1
    35   21   22 ar
    36   21   36 1
    37   22   23 ar
    38   22   37 1
    39   23   24 1
    40   24   38 1
@<TRIPOS>MOLECULE
ZINC02201250
   38    40     0     0     0
SMALL
USER_CHARGES

@<TRIPOS>ATOM
      1 C1          4.7997   15.1591    1.2783 C.3       1 <0>        -0.2116
      2 C2          4.4757   13.6913    0.9927 C.3       1 <0>        -0.1635
      3 C3          3.4490   13.1884    2.0095 C.3       1 <0>        -0.0683
      4 C4          3.1298   11.7428    1.7282 C.2       1 <0>        -0.2040
      5 N1          3.6994   10.6451    2.1849 N.2       1 <0>        -0.0599
      6 N2          3.3079    9.4948    1.8470 N.2       1 <0>        -0.0818
      7 C5          2.2958    9.3186    1.0087 C.2       1 <0>        -0.0725
      8 S1          1.8737   11.0260    0.6726 S.3       1 <0>         0.1835
      9 N3          1.7291    8.1455    0.5249 N.am      1 <0>        -0.2797
     10 C6          2.2179    6.9510    0.9132 C.2       1 <0>         0.3609
     11 O1          3.1544    6.8998    1.6867 O.2       1 <0>        -0.2610
     12 C7          1.6157    5.7042    0.3991 C.2       1 <0>        -0.1957
     13 C8          2.0186    4.3883    0.7149 C.2       1 <0>        -0.1454
     14 C9          1.1794    3.5715    0.0095 C.2       1 <0>        -0.0728
     15 N4          0.3320    4.3827   -0.6859 N.2       1 <0>        -0.0664
     16 H1          0.1196    6.3945   -0.8371 H         1 <0>         0.2789
     17 N5          0.6051    5.6141   -0.4430 N.pl3     1 <0>        -0.0590
     18 C10         1.1887    2.0921    0.0019 C.ar      1 <0>        -0.0299
     19 C11         2.3987    1.3990   -0.0138 C.ar      1 <0>        -0.0968
     20 C12         2.4014    0.0193   -0.0217 C.ar      1 <0>        -0.1395
     21 C13         1.2073   -0.6804   -0.0136 C.ar      1 <0>        -0.1085
     22 C14         0.0021   -0.0041    0.0020 C.ar      1 <0>        -0.1569
     23 C15        -0.0167    1.3812    0.0096 C.ar      1 <0>         0.0957
     24 O2         -1.2008    2.0470    0.0189 O.3       1 <0>        -0.2787
     25 H2          5.2091   15.2517    2.2842 H         1 <0>         0.0776
     26 H3          5.5312   15.5172    0.5539 H         1 <0>         0.0810
     27 H4          3.8897   15.7539    1.2002 H         1 <0>         0.0727
     28 H5          5.3858   13.0964    1.0708 H         1 <0>         0.0993
     29 H6          4.0664   13.5986   -0.0133 H         1 <0>         0.0853
     30 H7          2.5390   13.7833    1.9314 H         1 <0>         0.1003
     31 H8          3.8584   13.2811    3.0154 H         1 <0>         0.1211
     32 H9          0.9819    8.1864   -0.0922 H         1 <0>         0.2378
     33 H10         2.8202    4.0901    1.3743 H         1 <0>         0.1817
     34 H11         3.3325    1.9416   -0.0198 H         1 <0>         0.1395
     35 H12         3.3389   -0.5167   -0.0346 H         1 <0>         0.1345
     36 H13         1.2173   -1.7603   -0.0198 H         1 <0>         0.1332
     37 H14        -0.9262   -0.5561    0.0079 H         1 <0>         0.1419
     38 H15        -1.5394    2.2350    0.9049 H         1 <0>         0.2271
@<TRIPOS>BOND
     1    1    2 1
     2    1   25 1
     3    1   26 1
     4    1   27 1
     5    2    3 1
     6    2   28 1
     7    2   29 1
     8    3    4 1
     9    3   30 1
    10    3   31 1
    11    4    8 1
    12    4    5 2
    13    5    6 1
    14    6    7 2
    15    7    8 1
    16    7    9 1
    17    9   10 am
    18    9   32 1
    19   10   11 2
    20   10   12 1
    21   12   13 2
    22   12   17 1
    23   13   33 1
    24   13   14 1
    25   14   18 1
    26   14   15 2
    27   15   17 1
    28   16   17 1
    29   18   23 ar
    30   18   19 ar
    31   19   20 ar
    32   19   34 1
    33   20   21 ar
    34   20   35 1
    35   21   22 ar
    36   21   36 1
    37   22   23 ar
    38   22   37 1
    39   23   24 1
    40   24   38 1
@<TRIPOS>MOLECULE
ZINC02201250
   38    40     0     0     0
SMALL
USER_CHARGES

@<TRIPOS>ATOM
      1 C1          4.7997   15.1591    1.2783 C.3       1 <0>        -0.2116
      2 C2          4.4757   13.6913    0.9927 C.3       1 <0>        -0.1635
      3 C3          3.4490   13.1884    2.0095 C.3       1 <0>        -0.0683
      4 C4          3.1298   11.7428    1.7282 C.2       1 <0>        -0.2040
      5 N1          3.6994   10.6451    2.1849 N.2       1 <0>        -0.0599
      6 N2          3.3079    9.4948    1.8470 N.2       1 <0>        -0.0818
      7 C5          2.2958    9.3186    1.0087 C.2       1 <0>        -0.0725
      8 S1          1.8737   11.0260    0.6726 S.3       1 <0>         0.1835
      9 N3          1.7291    8.1455    0.5249 N.am      1 <0>        -0.2797
     10 C6          2.2179    6.9510    0.9132 C.2       1 <0>         0.3609
     11 O1          3.1544    6.8998    1.6867 O.2       1 <0>        -0.2610
     12 C7          1.6157    5.7042    0.3991 C.2       1 <0>        -0.1957
     13 C8          2.0186    4.3883    0.7149 C.2       1 <0>        -0.1454
     14 C9          1.1794    3.5715    0.0095 C.2       1 <0>        -0.0728
     15 N4          0.3320    4.3827   -0.6859 N.2       1 <0>        -0.0664
     16 H1          0.1196    6.3945   -0.8371 H         1 <0>         0.2789
     17 N5          0.6051    5.6141   -0.4430 N.pl3     1 <0>        -0.0590
     18 C10         1.1887    2.0921    0.0019 C.ar      1 <0>        -0.0299
     19 C11         2.3987    1.3990   -0.0138 C.ar      1 <0>        -0.0968
     20 C12         2.4014    0.0193   -0.0217 C.ar      1 <0>        -0.1395
     21 C13         1.2073   -0.6804   -0.0136 C.ar      1 <0>        -0.1085
     22 C14         0.0021   -0.0041    0.0020 C.ar      1 <0>        -0.1569
     23 C15        -0.0167    1.3812    0.0096 C.ar      1 <0>         0.0957
     24 O2         -1.2008    2.0470    0.0189 O.3       1 <0>        -0.2787
     25 H2          5.2091   15.2517    2.2842 H         1 <0>         0.0776
     26 H3          5.5312   15.5172    0.5539 H         1 <0>         0.0810
     27 H4          3.8897   15.7539    1.2002 H         1 <0>         0.0727
     28 H5          5.3858   13.0964    1.0708 H         1 <0>         0.0993
     29 H6          4.0664   13.5986   -0.0133 H         1 <0>         0.0853
     30 H7          2.5390   13.7833    1.9314 H         1 <0>         0.1003
     31 H8          3.8584   13.2811    3.0154 H         1 <0>         0.1211
     32 H9          0.9819    8.1864   -0.0922 H         1 <0>         0.2378
     33 H10         2.8202    4.0901    1.3743 H         1 <0>         0.1817
     34 H11         3.3325    1.9416   -0.0198 H         1 <0>         0.1395
     35 H12         3.3389   -0.5167   -0.0346 H         1 <0>         0.1345
     36 H13         1.2173   -1.7603   -0.0198 H         1 <0>         0.1332
     37 H14        -0.9262   -0.5561    0.0079 H         1 <0>         0.1419
     38 H15        -1.5394    2.2350    0.9049 H         1 <0>         0.2271
@<TRIPOS>BOND
     1    1    2 1
     2    1   25 1
     3    1   26 1
     4    1   27 1
     5    2    3 1
     6    2   28 1
     7    2   29 1
     8    3    4 1
     9    3   30 1
    10    3   31 1
    11    4    8 1
    12    4    5 2
    13    5    6 1
    14    6    7 2
    15    7    8 1
    16    7    9 1
    17    9   10 am
    18    9   32 1
    19   10   11 2
    20   10   12 1
    21   12   13 2
    22   12   17 1
    23   13   33 1
    24   13   14 1
    25   14   18 1
    26   14   15 2
    27   15   17 1
    28   16   17 1
    29   18   23 ar
    30   18   19 ar
    31   19   20 ar
    32   19   34 1
    33   20   21 ar
    34   20   35 1
    35   21   22 ar
    36   21   36 1
    37   22   23 ar
    38   22   37 1
    39   23   24 1
    40   24   38 1
@<TRIPOS>MOLECULE
ZINC02201893
   41    45     0     0     0
SMALL
USER_CHARGES

@<TRIPOS>ATOM
      1 C1          9.0372    9.9056   -0.7928 C.3       1 <0>        -0.0658
      2 O1          9.6282    8.6049   -0.7605 O.3       1 <0>        -0.1964
      3 C2          8.7830    7.5452   -0.6405 C.ar      1 <0>         0.0407
      4 C3          7.4222    7.7559   -0.5563 C.ar      1 <0>        -0.1163
      5 C4          6.5575    6.6673   -0.4327 C.ar      1 <0>        -0.0946
      6 C5          7.0710    5.3610   -0.3942 C.ar      1 <0>         0.0699
      7 C6          8.4455    5.1636   -0.4802 C.ar      1 <0>        -0.2396
      8 C7          9.2945    6.2470   -0.6023 C.ar      1 <0>         0.1277
      9 O2         10.6366    6.0473   -0.6854 O.3       1 <0>        -0.1873
     10 C8         11.0952    4.6947   -0.6404 C.3       1 <0>        -0.0668
     11 N1          6.0110    4.4801   -0.2695 N.pl3     1 <0>        -0.2155
     12 H1          6.0936    3.5149   -0.2202 H         1 <0>         0.2423
     13 C9          4.8174    5.1757   -0.2254 C.ar      1 <0>        -0.1166
     14 C10         5.0958    6.5458   -0.3231 C.ar      1 <0>         0.0593
     15 N2          4.0889    7.4185   -0.3022 N.ar      1 <0>        -0.2017
     16 C11         2.8452    7.0029   -0.1911 C.ar      1 <0>         0.0241
     17 N3          2.5366    5.7226   -0.1020 N.ar      1 <0>        -0.2594
     18 C12         3.4779    4.7840   -0.1090 C.ar      1 <0>         0.1836
     19 N4          3.1395    3.4423   -0.0086 N.pl3     1 <0>        -0.2702
     20 C13         1.8015    3.0594   -0.0187 C.ar      1 <0>         0.1238
     21 C14         0.8547    3.8495   -0.6058 C.ar      1 <0>        -0.1494
     22 C15        -0.4939    3.4872   -0.6283 C.ar      1 <0>        -0.0764
     23 C16        -0.9538    2.3398   -0.0710 C.ar      1 <0>        -0.1184
     24 C17        -0.0603    1.4522    0.5555 C.ar      1 <0>        -0.0975
     25 C18         1.3811    1.8066    0.5976 C.ar      1 <0>        -0.1532
     26 N5          1.9112    0.7980    1.2364 N.2       1 <0>        -0.0560
     27 O3          1.0360    0.0065    1.5262 O.3       1 <0>         0.1366
     28 N6         -0.0911    0.3006    1.1807 N.2       1 <0>        -0.0518
     29 H2          8.3579    9.9751   -1.6423 H         1 <0>         0.0685
     30 H3          8.4832   10.0759    0.1304 H         1 <0>         0.0689
     31 H4          9.8199   10.6579   -0.8909 H         1 <0>         0.1105
     32 H5          7.0270    8.7606   -0.5862 H         1 <0>         0.1581
     33 H6          8.8495    4.1624   -0.4511 H         1 <0>         0.1430
     34 H7         10.7889    4.2383    0.3009 H         1 <0>         0.0681
     35 H8         10.6641    4.1370   -1.4718 H         1 <0>         0.0677
     36 H9         12.1824    4.6769   -0.7159 H         1 <0>         0.1136
     37 H10         2.0500    7.7336   -0.1770 H         1 <0>         0.2000
     38 H11         3.8354    2.7710    0.0687 H         1 <0>         0.2505
     39 H12         1.1568    4.7795   -1.0644 H         1 <0>         0.1851
     40 H13        -1.2000    4.1497   -1.1067 H         1 <0>         0.1417
     41 H14        -2.0075    2.1062   -0.1098 H         1 <0>         0.1493
@<TRIPOS>BOND
     1    1    2 1
     2    1   29 1
     3    1   30 1
     4    1   31 1
     5    2    3 1
     6    3    8 ar
     7    3    4 ar
     8    4    5 ar
     9    4   32 1
    10    5   14 1
    11    5    6 ar
    12    6    7 ar
    13    6   11 1
    14    7    8 ar
    15    7   33 1
    16    8    9 1
    17    9   10 1
    18   10   34 1
    19   10   35 1
    20   10   36 1
    21   11   12 1
    22   11   13 1
    23   13   18 ar
    24   13   14 ar
    25   14   15 ar
    26   15   16 ar
    27   16   17 ar
    28   16   37 1
    29   17   18 ar
    30   18   19 1
    31   19   20 1
    32   19   38 1
    33   20   25 ar
    34   20   21 ar
    35   21   22 ar
    36   21   39 1
    37   22   23 ar
    38   22   40 1
    39   23   24 ar
    40   23   41 1
    41   24   28 2
    42   24   25 ar
    43   25   26 2
    44   26   27 1
    45   27   28 1
@<TRIPOS>MOLECULE
ZINC02205681
   41    43     0     0     0
SMALL
USER_CHARGES

@<TRIPOS>ATOM
      1 C1         12.4989    2.4526   -0.7681 C.3       1 <0>        -0.0641
      2 O1         11.9318    3.6308   -1.3447 O.3       1 <0>        -0.2118
      3 C2         10.6114    3.8577   -1.1123 C.ar      1 <0>         0.0900
      4 C3          9.9976    4.9831   -1.6425 C.ar      1 <0>        -0.1437
      5 C4          8.6568    5.2143   -1.4070 C.ar      1 <0>        -0.1191
      6 C5          7.9227    4.3198   -0.6391 C.ar      1 <0>        -0.0010
      7 C6          8.5392    3.1961   -0.1042 C.ar      1 <0>        -0.0800
      8 C7          9.8788    2.9635   -0.3455 C.ar      1 <0>        -0.2011
      9 N1          6.5634    4.5537   -0.3994 N.pl3     1 <0>        -0.2120
     10 C8          5.7246    3.5040   -0.1298 C.2       1 <0>         0.0872
     11 N2          6.0117    2.2124   -0.0890 N.2       1 <0>        -0.3720
     12 C9          5.1080    1.2973    0.1834 C.2       1 <0>         0.3271
     13 O2          5.3850    0.1089    0.2177 O.2       1 <0>        -0.2830
     14 C10         3.7347    1.7877    0.4459 C.2       1 <0>        -0.3237
     15 C11         2.6075    1.0953    0.7495 C.2       1 <0>         0.0097
     16 C12         1.3966    1.8117    1.1689 C.ar      1 <0>        -0.0496
     17 C13         1.4376    3.1950    1.3835 C.ar      1 <0>        -0.1293
     18 C14         0.2998    3.8643    1.7765 C.ar      1 <0>        -0.1204
     19 C15        -0.8895    3.1713    1.9604 C.ar      1 <0>         0.0604
     20 C16        -0.9401    1.7947    1.7437 C.ar      1 <0>         0.0700
     21 C17         0.1967    1.1140    1.3552 C.ar      1 <0>        -0.1844
     22 O3         -2.1086    1.1215    1.9198 O.3       1 <0>        -0.1982
     23 C18        -2.0869   -0.2880    1.6852 C.3       1 <0>        -0.0669
     24 O4         -2.0083    3.8374    2.3472 O.3       1 <0>        -0.2748
     25 S1          3.9784    3.5477    0.2425 S.3       1 <0>         0.1815
     26 H1         11.9789    1.5744   -1.1509 H         1 <0>         0.0726
     27 H2         13.5552    2.3923   -1.0299 H         1 <0>         0.1090
     28 H3         12.3949    2.4925    0.3162 H         1 <0>         0.0689
     29 H4         10.5685    5.6785   -2.2400 H         1 <0>         0.1480
     30 H5          8.1790    6.0903   -1.8202 H         1 <0>         0.1329
     31 H6          7.9700    2.5022    0.4964 H         1 <0>         0.1824
     32 H7         10.3572    2.0872    0.0664 H         1 <0>         0.1451
     33 H8          6.2153    5.4587   -0.4242 H         1 <0>         0.2578
     34 H9          2.6013    0.0174    0.6825 H         1 <0>         0.1678
     35 H10         2.3611    3.7366    1.2412 H         1 <0>         0.1502
     36 H11         0.3326    4.9311    1.9417 H         1 <0>         0.1491
     37 H12         0.1595    0.0472    1.1911 H         1 <0>         0.1450
     38 H13        -1.3733   -0.7580    2.3618 H         1 <0>         0.0712
     39 H14        -3.0803   -0.7008    1.8607 H         1 <0>         0.1132
     40 H15        -1.7906   -0.4802    0.6539 H         1 <0>         0.0673
     41 H16        -2.5433    4.1676    1.6124 H         1 <0>         0.2286
@<TRIPOS>BOND
     1    1    2 1
     2    1   26 1
     3    1   27 1
     4    1   28 1
     5    2    3 1
     6    3    8 ar
     7    3    4 ar
     8    4    5 ar
     9    4   29 1
    10    5    6 ar
    11    5   30 1
    12    6    7 ar
    13    6    9 1
    14    7    8 ar
    15    7   31 1
    16    8   32 1
    17    9   10 1
    18    9   33 1
    19   10   25 1
    20   10   11 2
    21   11   12 1
    22   12   13 2
    23   12   14 1
    24   14   15 2
    25   14   25 1
    26   15   16 1
    27   15   34 1
    28   16   21 ar
    29   16   17 ar
    30   17   18 ar
    31   17   35 1
    32   18   19 ar
    33   18   36 1
    34   19   20 ar
    35   19   24 1
    36   20   21 ar
    37   20   22 1
    38   21   37 1
    39   22   23 1
    40   23   38 1
    41   23   39 1
    42   23   40 1
    43   24   41 1
@<TRIPOS>MOLECULE
ZINC02206022
   40    42     0     0     0
SMALL
USER_CHARGES

@<TRIPOS>ATOM
      1 C1         11.2765    4.4275    2.9857 C.3       1 <0>        -0.2098
      2 C2         10.9580    4.0964    1.5263 C.3       1 <0>        -0.1631
      3 C3         10.0949    2.8346    1.4662 C.3       1 <0>        -0.1604
      4 C4          9.7764    2.5036    0.0068 C.3       1 <0>        -0.0725
      5 C5          8.9262    1.2607   -0.0524 C.2       1 <0>        -0.0011
      6 N1          9.3892    0.0143   -0.1407 N.2       1 <0>        -0.2560
      7 C6          8.3821   -0.8339   -0.1725 C.2       1 <0>         0.1583
      8 N2          8.3279   -2.2076   -0.2573 N.am      1 <0>        -0.2744
      9 H1          9.1742   -2.7378   -0.3091 H         1 <0>         0.2786
     10 C7          7.1372   -2.8391   -0.2707 C.2       1 <0>         0.3544
     11 O1          7.0918   -4.0552   -0.3459 O.2       1 <0>        -0.3448
     12 C8          5.9468   -2.0930   -0.1944 C.2       1 <0>        -0.3035
     13 C9          6.0096   -0.7348   -0.1156 C.2       1 <0>         0.2630
     14 N3          7.2338   -0.1085   -0.1024 N.pl3     1 <0>        -0.1347
     15 N4          7.6189    1.2372   -0.0260 N.2       1 <0>        -0.0871
     16 N5          4.8512    0.0086   -0.0436 N.am      1 <0>        -0.3401
     17 C10         4.5990    0.9546   -0.9698 C.2       1 <0>         0.3560
     18 O2          5.4315    1.2134   -1.8165 O.2       1 <0>        -0.3175
     19 C11         3.3100    1.6773   -0.9558 C.ar      1 <0>        -0.1301
     20 C12         3.0455    2.6579   -1.9137 C.ar      1 <0>        -0.0594
     21 C13         1.8401    3.3284   -1.8952 C.ar      1 <0>        -0.1367
     22 C14         0.8943    3.0310   -0.9301 C.ar      1 <0>        -0.0984
     23 C15         1.1500    2.0604    0.0223 C.ar      1 <0>        -0.1349
     24 C16         2.3513    1.3823    0.0152 C.ar      1 <0>        -0.1037
     25 H2         10.3479    4.5962    3.5310 H         1 <0>         0.0735
     26 H3         11.8171    3.5956    3.4373 H         1 <0>         0.0745
     27 H4         11.8915    5.3264    3.0285 H         1 <0>         0.0738
     28 H5         11.8867    3.9277    0.9810 H         1 <0>         0.0820
     29 H6         10.4175    4.9283    1.0747 H         1 <0>         0.0809
     30 H7          9.1663    3.0033    2.0115 H         1 <0>         0.0894
     31 H8         10.6354    2.0028    1.9178 H         1 <0>         0.0933
     32 H9         10.7050    2.3349   -0.5385 H         1 <0>         0.1113
     33 H10         9.2358    3.3354   -0.4449 H         1 <0>         0.1083
     34 H11         4.9898   -2.5936   -0.2009 H         1 <0>         0.1870
     35 H12         4.2175   -0.1492    0.6736 H         1 <0>         0.2519
     36 H13         3.7831    2.8912   -2.6674 H         1 <0>         0.1594
     37 H14         1.6343    4.0874   -2.6354 H         1 <0>         0.1398
     38 H15        -0.0461    3.5621   -0.9173 H         1 <0>         0.1353
     39 H16         0.4074    1.8331    0.7728 H         1 <0>         0.1359
     40 H17         2.5495    0.6246    0.7588 H         1 <0>         0.1219
@<TRIPOS>BOND
     1    1    2 1
     2    1   25 1
     3    1   26 1
     4    1   27 1
     5    2    3 1
     6    2   28 1
     7    2   29 1
     8    3    4 1
     9    3   30 1
    10    3   31 1
    11    4    5 1
    12    4   32 1
    13    4   33 1
    14    5   15 2
    15    5    6 1
    16    6    7 2
    17    7   14 1
    18    7    8 1
    19    8    9 1
    20    8   10 am
    21   10   11 2
    22   10   12 1
    23   12   13 2
    24   12   34 1
    25   13   14 1
    26   13   16 1
    27   14   15 1
    28   16   17 am
    29   16   35 1
    30   17   18 2
    31   17   19 1
    32   19   24 ar
    33   19   20 ar
    34   20   21 ar
    35   20   36 1
    36   21   22 ar
    37   21   37 1
    38   22   23 ar
    39   22   38 1
    40   23   24 ar
    41   23   39 1
    42   24   40 1
@<TRIPOS>MOLECULE
ZINC02206143
   45    48     0     0     0
SMALL
USER_CHARGES

@<TRIPOS>ATOM
      1 C1          7.0425    9.6356    0.6171 C.3       1 <0>        -0.0679
      2 O1          5.8306   10.3875    0.5277 O.3       1 <0>        -0.1877
      3 C2          4.6734    9.6829    0.4321 C.ar      1 <0>         0.1075
      4 C3          4.7064    8.2948    0.4251 C.ar      1 <0>        -0.2010
      5 C4          3.5352    7.5750    0.3346 C.ar      1 <0>        -0.0718
      6 C5          2.3102    8.2425    0.2377 C.ar      1 <0>        -0.0840
      7 C6          2.2773    9.6407    0.2448 C.ar      1 <0>        -0.1489
      8 C7          3.4553   10.3553    0.3417 C.ar      1 <0>         0.0628
      9 O2          3.4271   11.7149    0.3484 O.3       1 <0>        -0.1925
     10 C8          2.1446   12.3377    0.2522 C.3       1 <0>        -0.0664
     11 C9          1.0567    7.4748    0.1346 C.2       1 <0>         0.1910
     12 C10         1.1179    6.0996    0.1358 C.2       1 <0>        -0.2543
     13 C11        -0.0706    5.3540    0.0314 C.2       1 <0>         0.2575
     14 C12        -0.0514    3.9386    0.0232 C.2       1 <0>        -0.4258
     15 C13         0.9564    3.2285   -0.6789 C.2       1 <0>         0.3755
     16 O3          1.8238    3.8278   -1.2886 O.2       1 <0>        -0.3811
     17 N1          0.9395    1.8806   -0.6616 N.am      1 <0>        -0.3435
     18 C14        -0.0137    1.2114    0.0085 C.2       1 <0>         0.4066
     19 O4          0.0030   -0.0041    0.0017 O.2       1 <0>        -0.3824
     20 N2         -0.9879    1.8467    0.6812 N.am      1 <0>        -0.3426
     21 C15        -1.0392    3.1933    0.7173 C.2       1 <0>         0.3701
     22 O5         -1.9226    3.7618    1.3335 O.2       1 <0>        -0.3845
     23 C16        -1.3370    6.1023   -0.0628 C.ar      1 <0>        -0.1455
     24 C17        -2.5618    5.4415   -0.1643 C.ar      1 <0>        -0.0119
     25 C18        -3.7247    6.1744   -0.2506 C.ar      1 <0>        -0.1635
     26 C19        -3.6808    7.5613   -0.2366 C.ar      1 <0>        -0.0610
     27 C20        -2.4774    8.2264   -0.1371 C.ar      1 <0>        -0.1634
     28 C21        -1.2920    7.5064   -0.0491 C.ar      1 <0>         0.1065
     29 O6         -0.1050    8.1403    0.0485 O.3       1 <0>        -0.1050
     30 H1          7.8892   10.3183    0.6882 H         1 <0>         0.1160
     31 H2          7.0119    9.0011    1.5028 H         1 <0>         0.0703
     32 H3          7.1507    9.0140   -0.2717 H         1 <0>         0.0714
     33 H4          5.6522    7.7781    0.4953 H         1 <0>         0.1518
     34 H5          3.5635    6.4953    0.3338 H         1 <0>         0.1528
     35 H6          1.3332   10.1603    0.1744 H         1 <0>         0.1561
     36 H7          1.6649   12.0394   -0.6800 H         1 <0>         0.0684
     37 H8          1.5260   12.0277    1.0945 H         1 <0>         0.0681
     38 H9          2.2645   13.4209    0.2687 H         1 <0>         0.1147
     39 H10         2.0709    5.5971    0.2114 H         1 <0>         0.1884
     40 H11         1.6248    1.3873   -1.1390 H         1 <0>         0.2663
     41 H12        -1.6612    1.3294    1.1503 H         1 <0>         0.2659
     42 H13        -2.5977    4.3621   -0.1749 H         1 <0>         0.1838
     43 H14        -4.6750    5.6674   -0.3297 H         1 <0>         0.1443
     44 H15        -4.5991    8.1256   -0.3048 H         1 <0>         0.1414
     45 H16        -2.4558    9.3061   -0.1272 H         1 <0>         0.1472
@<TRIPOS>BOND
     1    1    2 1
     2    1   30 1
     3    1   31 1
     4    1   32 1
     5    2    3 1
     6    3    8 ar
     7    3    4 ar
     8    4    5 ar
     9    4   33 1
    10    5    6 ar
    11    5   34 1
    12    6    7 ar
    13    6   11 1
    14    7    8 ar
    15    7   35 1
    16    8    9 1
    17    9   10 1
    18   10   36 1
    19   10   37 1
    20   10   38 1
    21   11   29 1
    22   11   12 2
    23   12   13 1
    24   12   39 1
    25   13   14 2
    26   13   23 1
    27   14   21 1
    28   14   15 1
    29   15   16 2
    30   15   17 am
    31   17   18 am
    32   17   40 1
    33   18   19 2
    34   18   20 am
    35   20   21 am
    36   20   41 1
    37   21   22 2
    38   23   28 ar
    39   23   24 ar
    40   24   25 ar
    41   24   42 1
    42   25   26 ar
    43   25   43 1
    44   26   27 ar
    45   26   44 1
    46   27   28 ar
    47   27   45 1
    48   28   29 1
@<TRIPOS>MOLECULE
ZINC02208645
   39    41     0     0     0
SMALL
USER_CHARGES

@<TRIPOS>ATOM
      1 C1         -0.0389   -0.7744   -3.5858 C.3       1 <0>        -0.0657
      2 O1         -0.0323   -0.0044   -2.3820 O.3       1 <0>        -0.1971
      3 C2         -0.0058   -0.6924   -1.2092 C.ar      1 <0>         0.0655
      4 C3          0.0187   -2.0745   -1.2191 C.ar      1 <0>        -0.1899
      5 C4          0.0397   -2.7781   -0.0121 C.ar      1 <0>        -0.0319
      6 C5          0.0417   -2.0812    1.1989 C.ar      1 <0>        -0.1046
      7 C6          0.0229   -0.7024    1.2006 C.ar      1 <0>        -0.1275
      8 C7          0.0021   -0.0041    0.0020 C.ar      1 <0>         0.0646
      9 O2         -0.0164    1.3552    0.0095 O.3       1 <0>        -0.2756
     10 C8          0.0602   -4.2522   -0.0164 C.2       1 <0>        -0.0889
     11 N1          0.0802   -4.9042    1.1058 N.2       1 <0>         0.0071
     12 N2          0.0997   -6.3051    1.1017 N.pl3     1 <0>        -0.2338
     13 C9          0.1206   -6.9906    2.2816 C.2       1 <0>         0.1581
     14 N3          0.1315   -6.5002    3.5145 N.2       1 <0>        -0.3533
     15 C10         0.1463   -7.2292    4.5966 C.2       1 <0>         0.3085
     16 O3          0.1502   -6.7405    5.7098 O.2       1 <0>        -0.2626
     17 C11         0.1651   -8.7355    4.3680 C.3       1 <0>        -0.2102
     18 H1          1.0747   -9.1876    4.7636 H         1 <0>         0.1594
     19 S1          0.1477   -8.7608    2.5300 S.3       1 <0>         0.0571
     20 C12        -1.0643   -9.3941    4.9389 C.ar      1 <0>        -0.0619
     21 C13        -2.3191   -8.9101    4.6194 C.ar      1 <0>        -0.1018
     22 C14        -3.4470   -9.5166    5.1400 C.ar      1 <0>        -0.1244
     23 C15        -3.3197  -10.6019    5.9866 C.ar      1 <0>        -0.1172
     24 C16        -2.0647  -11.0826    6.3103 C.ar      1 <0>        -0.1273
     25 C17        -0.9370  -10.4785    5.7866 C.ar      1 <0>        -0.1050
     26 H2          0.8593   -1.3905   -3.6279 H         1 <0>         0.0648
     27 H3         -0.9204   -1.4154   -3.6023 H         1 <0>         0.0686
     28 H4         -0.0607   -0.1046   -4.4454 H         1 <0>         0.1131
     29 H5          0.0171   -2.6092   -2.1574 H         1 <0>         0.1383
     30 H6          0.0576   -2.6223    2.1334 H         1 <0>         0.1672
     31 H7          0.0241   -0.1648    2.1373 H         1 <0>         0.1536
     32 H8          0.8616    1.7605    0.0033 H         1 <0>         0.2295
     33 H9          0.0587   -4.7895   -0.9532 H         1 <0>         0.1182
     34 H10         0.0983   -6.7877    0.2603 H         1 <0>         0.2392
     35 H11        -2.4184   -8.0601    3.9606 H         1 <0>         0.1367
     36 H12        -4.4275   -9.1408    4.8874 H         1 <0>         0.1335
     37 H13        -4.2008  -11.0741    6.3955 H         1 <0>         0.1311
     38 H14        -1.9652  -11.9303    6.9720 H         1 <0>         0.1326
     39 H15         0.0436  -10.8541    6.0395 H         1 <0>         0.1317
@<TRIPOS>BOND
     1    1    2 1
     2    1   26 1
     3    1   27 1
     4    1   28 1
     5    2    3 1
     6    3    8 ar
     7    3    4 ar
     8    4    5 ar
     9    4   29 1
    10    5    6 ar
    11    5   10 1
    12    6    7 ar
    13    6   30 1
    14    7    8 ar
    15    7   31 1
    16    8    9 1
    17    9   32 1
    18   10   11 2
    19   10   33 1
    20   11   12 1
    21   12   13 1
    22   12   34 1
    23   13   19 1
    24   13   14 2
    25   14   15 1
    26   15   16 2
    27   15   17 1
    28   17   18 1
    29   17   19 1
    30   17   20 1
    31   20   25 ar
    32   20   21 ar
    33   21   22 ar
    34   21   35 1
    35   22   23 ar
    36   22   36 1
    37   23   24 ar
    38   23   37 1
    39   24   25 ar
    40   24   38 1
    41   25   39 1
@<TRIPOS>MOLECULE
ZINC02208649
   39    41     0     0     0
SMALL
USER_CHARGES

@<TRIPOS>ATOM
      1 C1        -12.7091    5.7135   -0.5527 C.3       1 <0>        -0.0656
      2 O1        -12.5024    5.6010    0.8568 O.3       1 <0>        -0.1972
      3 C2        -11.3279    5.0513    1.2667 C.ar      1 <0>         0.0653
      4 C3        -10.3963    4.6364    0.3336 C.ar      1 <0>        -0.1898
      5 C4         -9.1929    4.0672    0.7582 C.ar      1 <0>        -0.0319
      6 C5         -8.9323    3.9308    2.1242 C.ar      1 <0>        -0.1045
      7 C6         -9.8642    4.3523    3.0491 C.ar      1 <0>        -0.1275
      8 C7        -11.0615    4.9117    2.6270 C.ar      1 <0>         0.0648
      9 O2        -11.9768    5.3251    3.5430 O.3       1 <0>        -0.2755
     10 C8         -8.1982    3.6172   -0.2324 C.2       1 <0>        -0.0887
     11 N1         -7.0785    3.0935    0.1639 N.2       1 <0>         0.0070
     12 N2         -6.1332    2.6659   -0.7775 N.pl3     1 <0>        -0.2337
     13 C9         -4.9561    2.1153   -0.3608 C.2       1 <0>         0.1581
     14 N3         -4.5422    1.9097    0.8831 N.2       1 <0>        -0.3523
     15 C10        -3.3947    1.3745    1.1981 C.2       1 <0>         0.3088
     16 O3         -3.0520    1.2033    2.3519 O.2       1 <0>        -0.2624
     17 C11        -2.5137    0.9795    0.0193 C.3       1 <0>        -0.2104
     18 H1         -2.3329   -0.0952    0.0002 H         1 <0>         0.1594
     19 S1         -3.6074    1.5007   -1.3632 S.3       1 <0>         0.0566
     20 C12        -1.2190    1.7506    0.0173 C.ar      1 <0>        -0.0620
     21 C13        -0.0126    1.0758    0.0080 C.ar      1 <0>        -0.1041
     22 C14         1.1750    1.7832    0.0004 C.ar      1 <0>        -0.1271
     23 C15         1.1563    3.1654    0.0076 C.ar      1 <0>        -0.1175
     24 C16        -0.0501    3.8402    0.0228 C.ar      1 <0>        -0.1248
     25 C17        -1.2377    3.1328    0.0303 C.ar      1 <0>        -0.1027
     26 H2        -11.9270    6.3368   -0.9860 H         1 <0>         0.0647
     27 H3        -12.6761    4.7223   -1.0050 H         1 <0>         0.0687
     28 H4        -13.6819    6.1671   -0.7422 H         1 <0>         0.1131
     29 H5        -10.5999    4.7479   -0.7212 H         1 <0>         0.1383
     30 H6         -8.0014    3.4949    2.4555 H         1 <0>         0.1672
     31 H7         -9.6616    4.2463    4.1046 H         1 <0>         0.1536
     32 H8        -11.8704    6.2463    3.8173 H         1 <0>         0.2295
     33 H9         -8.4010    3.7233   -1.2878 H         1 <0>         0.1182
     34 H10        -6.3153    2.7612   -1.7254 H         1 <0>         0.2391
     35 H11         0.0021   -0.0041    0.0020 H         1 <0>         0.1323
     36 H12         2.1175    1.2560   -0.0115 H         1 <0>         0.1328
     37 H13         2.0841    3.7181    0.0017 H         1 <0>         0.1310
     38 H14        -0.0647    4.9201    0.0291 H         1 <0>         0.1330
     39 H15        -2.1802    3.6600    0.0425 H         1 <0>         0.1362
@<TRIPOS>BOND
     1    1    2 1
     2    1   26 1
     3    1   27 1
     4    1   28 1
     5    2    3 1
     6    3    8 ar
     7    3    4 ar
     8    4    5 ar
     9    4   29 1
    10    5    6 ar
    11    5   10 1
    12    6    7 ar
    13    6   30 1
    14    7    8 ar
    15    7   31 1
    16    8    9 1
    17    9   32 1
    18   10   11 2
    19   10   33 1
    20   11   12 1
    21   12   13 1
    22   12   34 1
    23   13   19 1
    24   13   14 2
    25   14   15 1
    26   15   16 2
    27   15   17 1
    28   17   18 1
    29   17   19 1
    30   17   20 1
    31   20   25 ar
    32   20   21 ar
    33   21   22 ar
    34   21   35 1
    35   22   23 ar
    36   22   36 1
    37   23   24 ar
    38   23   37 1
    39   24   25 ar
    40   24   38 1
    41   25   39 1
@<TRIPOS>MOLECULE
ZINC02213593
   48    51     0     0     0
SMALL
USER_CHARGES

@<TRIPOS>ATOM
      1 C1          1.4532    6.1935    2.2889 C.3       1 <0>        -0.1737
      2 C2          1.7636    5.3209    1.1001 C.ar      1 <0>        -0.0811
      3 C3          2.4302    5.8526    0.0099 C.ar      1 <0>        -0.1052
      4 C4          2.7198    5.0610   -1.0853 C.ar      1 <0>        -0.0934
      5 C5          2.3429    3.7279   -1.0976 C.ar      1 <0>         0.0890
      6 C6          1.6687    3.1867    0.0028 C.ar      1 <0>        -0.0498
      7 C7          1.3772    3.9963    1.1002 C.ar      1 <0>        -0.1056
      8 C8          1.2620    1.7643   -0.0005 C.2       1 <0>        -0.0247
      9 C9          2.0864    0.6849   -0.0142 C.2       1 <0>        -0.1874
     10 C10         1.2428   -0.4490   -0.0122 C.2       1 <0>        -0.1737
     11 N1          0.0021   -0.0041    0.0020 N.2       1 <0>        -0.0144
     12 N2         -0.0154    1.2813    0.0091 N.pl3     1 <0>        -0.1118
     13 H1         -0.8419    1.8441    0.0200 H         1 <0>         0.2914
     14 C11         2.0981   -1.6494   -0.0272 C.2       1 <0>         0.3992
     15 O1          1.6873   -2.7935   -0.0290 O.2       1 <0>        -0.3192
     16 N3          3.3961   -1.3008   -0.0367 N.am      1 <0>        -0.3454
     17 C12         3.4973    0.1632   -0.0301 C.3       1 <0>         0.1567
     18 H2          4.0302    0.4983    0.8597 H         1 <0>         0.1175
     19 C13         4.2107    0.6382   -1.2696 C.ar      1 <0>        -0.1261
     20 C14         4.2577   -0.1674   -2.3918 C.ar      1 <0>        -0.0910
     21 C15         4.9116    0.2682   -3.5290 C.ar      1 <0>        -0.1494
     22 C16         5.5189    1.5103   -3.5456 C.ar      1 <0>        -0.1034
     23 C17         5.4736    2.3171   -2.4248 C.ar      1 <0>        -0.1611
     24 C18         4.8143    1.8839   -1.2867 C.ar      1 <0>         0.1328
     25 F1          4.7641    2.6745   -0.1923 F         1 <0>        -0.1046
     26 C19         4.5270   -2.2319   -0.0518 C.3       1 <0>         0.0224
     27 C20         4.9338   -2.5635    1.3854 C.3       1 <0>        -0.0253
     28 O2          3.8716   -3.2693    2.0303 O.3       1 <0>        -0.3330
     29 O3          2.6270    2.9489   -2.1737 O.3       1 <0>        -0.2806
     30 C21         3.4460    5.6488   -2.2678 C.3       1 <0>        -0.1738
     31 H3          0.4786    6.6618    2.1512 H         1 <0>         0.0856
     32 H4          1.4392    5.5845    3.1928 H         1 <0>         0.0849
     33 H5          2.2172    6.9652    2.3825 H         1 <0>         0.0846
     34 H6          2.7253    6.8916    0.0150 H         1 <0>         0.1360
     35 H7          0.8529    3.5861    1.9506 H         1 <0>         0.1380
     36 H8          3.7837   -1.1377   -2.3800 H         1 <0>         0.1463
     37 H9          4.9478   -0.3619   -4.4054 H         1 <0>         0.1326
     38 H10         6.0292    1.8498   -4.4348 H         1 <0>         0.1316
     39 H11         5.9483    3.2871   -2.4379 H         1 <0>         0.1400
     40 H12         4.2373   -3.1473   -0.5678 H         1 <0>         0.1223
     41 H13         5.3685   -1.7730   -0.5708 H         1 <0>         0.1001
     42 H14         5.8294   -3.1848    1.3754 H         1 <0>         0.0624
     43 H15         5.1381   -1.6402    1.9274 H         1 <0>         0.0616
     44 H16         4.0605   -3.5124    2.9469 H         1 <0>         0.2078
     45 H17         1.9358    2.9451   -2.8500 H         1 <0>         0.2281
     46 H18         2.7214    6.0488   -2.9771 H         1 <0>         0.0823
     47 H19         4.1032    6.4497   -1.9292 H         1 <0>         0.0837
     48 H20         4.0387    4.8729   -2.7525 H         1 <0>         0.0968
@<TRIPOS>BOND
     1    1    2 1
     2    1   31 1
     3    1   32 1
     4    1   33 1
     5    2    7 ar
     6    2    3 ar
     7    3    4 ar
     8    3   34 1
     9    4    5 ar
    10    4   30 1
    11    5    6 ar
    12    5   29 1
    13    6    7 ar
    14    6    8 1
    15    7   35 1
    16    8   12 1
    17    8    9 2
    18    9   17 1
    19    9   10 1
    20   10   11 2
    21   10   14 1
    22   11   12 1
    23   12   13 1
    24   14   15 2
    25   14   16 am
    26   16   17 1
    27   16   26 1
    28   17   18 1
    29   17   19 1
    30   19   24 ar
    31   19   20 ar
    32   20   21 ar
    33   20   36 1
    34   21   22 ar
    35   21   37 1
    36   22   23 ar
    37   22   38 1
    38   23   24 ar
    39   23   39 1
    40   24   25 1
    41   26   27 1
    42   26   40 1
    43   26   41 1
    44   27   28 1
    45   27   42 1
    46   27   43 1
    47   28   44 1
    48   29   45 1
    49   30   46 1
    50   30   47 1
    51   30   48 1
@<TRIPOS>MOLECULE
ZINC02213593
   48    51     0     0     0
SMALL
USER_CHARGES

@<TRIPOS>ATOM
      1 C1          1.4526    6.1939    2.2878 C.3       1 <0>        -0.1722
      2 C2          1.7633    5.3211    1.0992 C.ar      1 <0>        -0.0841
      3 C3          2.4302    5.8526    0.0091 C.ar      1 <0>        -0.1094
      4 C4          2.7201    5.0608   -1.0859 C.ar      1 <0>        -0.0959
      5 C5          2.3432    3.7277   -1.0981 C.ar      1 <0>         0.0820
      6 C6          1.6687    3.1867    0.0023 C.ar      1 <0>        -0.0194
      7 C7          1.3769    3.9965    1.0994 C.ar      1 <0>        -0.0933
      8 C8          1.2620    1.7643   -0.0009 C.2       1 <0>        -0.0233
      9 C9          2.0864    0.6849   -0.0137 C.2       1 <0>        -0.1681
     10 C10         1.2428   -0.4490   -0.0114 C.2       1 <0>        -0.2058
     11 N1          0.0021   -0.0041    0.0016 N.pl3     1 <0>        -0.0049
     12 N2         -0.0154    1.2813    0.0085 N.2       1 <0>        -0.1035
     13 H1         -0.8117   -0.5852    0.0056 H         1 <0>         0.2930
     14 C11         2.0981   -1.6494   -0.0258 C.2       1 <0>         0.3906
     15 O1          1.6873   -2.7935   -0.0272 O.2       1 <0>        -0.3403
     16 N3          3.3961   -1.3008   -0.0352 N.am      1 <0>        -0.3367
     17 C12         3.4973    0.1632   -0.0292 C.3       1 <0>         0.1478
     18 H2          4.0301    0.4986    0.8606 H         1 <0>         0.1209
     19 C13         4.2109    0.6377   -1.2687 C.ar      1 <0>        -0.1263
     20 C14         4.2581   -0.1683   -2.3906 C.ar      1 <0>        -0.0932
     21 C15         4.9121    0.2669   -3.5279 C.ar      1 <0>        -0.1498
     22 C16         5.5194    1.5090   -3.5449 C.ar      1 <0>        -0.1019
     23 C17         5.4740    2.3162   -2.4244 C.ar      1 <0>        -0.1588
     24 C18         4.8145    1.8834   -1.2862 C.ar      1 <0>         0.1376
     25 F1          4.7641    2.6744   -0.1921 F         1 <0>        -0.1022
     26 C19         4.5270   -2.2319   -0.0498 C.3       1 <0>         0.0203
     27 C20         4.9336   -2.5630    1.3876 C.3       1 <0>        -0.0252
     28 O2          3.8713   -3.2685    2.0326 O.3       1 <0>        -0.3357
     29 O3          2.6275    2.9485   -2.1740 O.3       1 <0>        -0.2867
     30 C21         3.4465    5.6484   -2.2684 C.3       1 <0>        -0.1724
     31 H3          0.4781    6.6622    2.1498 H         1 <0>         0.0860
     32 H4          1.4384    5.5851    3.1918 H         1 <0>         0.0827
     33 H5          2.2166    6.9656    2.3814 H         1 <0>         0.0810
     34 H6          2.7253    6.8916    0.0141 H         1 <0>         0.1328
     35 H7          0.8524    3.5864    1.9498 H         1 <0>         0.1414
     36 H8          3.7841   -1.1386   -2.3785 H         1 <0>         0.1426
     37 H9          4.9484   -0.3636   -4.4040 H         1 <0>         0.1319
     38 H10         6.0298    1.8481   -4.4341 H         1 <0>         0.1320
     39 H11         5.9486    3.2862   -2.4378 H         1 <0>         0.1416
     40 H12         4.2374   -3.1475   -0.5655 H         1 <0>         0.1219
     41 H13         5.3686   -1.7732   -0.5688 H         1 <0>         0.1031
     42 H14         5.8292   -3.1843    1.3780 H         1 <0>         0.0641
     43 H15         5.1378   -1.6394    1.9293 H         1 <0>         0.0632
     44 H16         4.0601   -3.5113    2.9493 H         1 <0>         0.2086
     45 H17         1.9365    2.9446   -2.8504 H         1 <0>         0.2280
     46 H18         2.7221    6.0483   -2.9779 H         1 <0>         0.0815
     47 H19         4.1037    6.4494   -1.9297 H         1 <0>         0.0811
     48 H20         4.0394    4.8724   -2.7528 H         1 <0>         0.0933
@<TRIPOS>BOND
     1    1    2 1
     2    1   31 1
     3    1   32 1
     4    1   33 1
     5    2    7 ar
     6    2    3 ar
     7    3    4 ar
     8    3   34 1
     9    4    5 ar
    10    4   30 1
    11    5    6 ar
    12    5   29 1
    13    6    7 ar
    14    6    8 1
    15    7   35 1
    16    8    9 1
    17    8   12 2
    18    9   17 1
    19    9   10 2
    20   10   14 1
    21   10   11 1
    22   11   13 1
    23   11   12 1
    24   14   15 2
    25   14   16 am
    26   16   17 1
    27   16   26 1
    28   17   18 1
    29   17   19 1
    30   19   24 ar
    31   19   20 ar
    32   20   21 ar
    33   20   36 1
    34   21   22 ar
    35   21   37 1
    36   22   23 ar
    37   22   38 1
    38   23   24 ar
    39   23   39 1
    40   24   25 1
    41   26   27 1
    42   26   40 1
    43   26   41 1
    44   27   28 1
    45   27   42 1
    46   27   43 1
    47   28   44 1
    48   29   45 1
    49   30   46 1
    50   30   47 1
    51   30   48 1
@<TRIPOS>MOLECULE
ZINC02218054
   46    49     0     0     0
SMALL
USER_CHARGES

@<TRIPOS>ATOM
      1 C1         -0.0173    1.4248    0.0099 C.3       1 <0>        -0.0617
      2 O1          0.0021   -0.0041    0.0020 O.3       1 <0>        -0.2149
      3 C2          0.6058   -0.6071   -1.0557 C.ar      1 <0>         0.0984
      4 C3          1.1631    0.1607   -2.0682 C.ar      1 <0>        -0.2162
      5 C4          1.7808   -0.4546   -3.1396 C.ar      1 <0>        -0.0946
      6 C5          1.8348   -1.8347   -3.2088 C.ar      1 <0>        -0.1446
      7 C6          1.2753   -2.6019   -2.2041 C.ar      1 <0>        -0.0505
      8 C7          0.6609   -1.9912   -1.1277 C.ar      1 <0>        -0.1343
      9 C8          1.3360   -4.1056   -2.2827 C.3       1 <0>         0.1535
     10 H1          1.1968   -4.5378   -1.2918 H         1 <0>         0.1098
     11 C9          0.2783   -4.6168   -3.2223 C.2       1 <0>        -0.1870
     12 C10        -1.0425   -4.7157   -3.5202 C.2       1 <0>        -0.0280
     13 N1         -1.1305   -5.4247   -4.6840 N.pl3     1 <0>        -0.1124
     14 H2         -1.9834   -5.6578   -5.1511 H         1 <0>         0.2910
     15 N2          0.0455   -5.7481   -5.0902 N.2       1 <0>        -0.0139
     16 C11         0.9621   -5.2951   -4.2583 C.2       1 <0>        -0.1741
     17 C12         2.4067   -5.2132   -3.9768 C.2       1 <0>         0.3980
     18 O2          3.2776   -5.6965   -4.6739 O.2       1 <0>        -0.3198
     19 N3          2.6255   -4.5294   -2.8406 N.am      1 <0>        -0.3427
     20 C13         3.9389   -4.2523   -2.2538 C.3       1 <0>         0.0249
     21 C14         4.3186   -5.3835   -1.2962 C.3       1 <0>        -0.0259
     22 O3          4.4823   -6.5968   -2.0333 O.3       1 <0>        -0.3331
     23 C15        -2.1680   -4.1622   -2.7356 C.ar      1 <0>        -0.0628
     24 C16        -3.0895   -5.0178   -2.1327 C.ar      1 <0>        -0.1012
     25 C17        -4.1370   -4.4962   -1.4017 C.ar      1 <0>        -0.1415
     26 C18        -4.2771   -3.1261   -1.2640 C.ar      1 <0>        -0.1042
     27 C19        -3.3696   -2.2687   -1.8567 C.ar      1 <0>        -0.1539
     28 C20        -2.3099   -2.7777   -2.5898 C.ar      1 <0>         0.1002
     29 O4         -1.4144   -1.9359   -3.1684 O.3       1 <0>        -0.2740
     30 H3          1.0053    1.8021    0.0021 H         1 <0>         0.0671
     31 H4         -0.5445    1.7859   -0.8732 H         1 <0>         0.0668
     32 H5         -0.5275    1.7763    0.9067 H         1 <0>         0.1052
     33 H6          1.1172    1.2385   -2.0169 H         1 <0>         0.1307
     34 H7          2.2183    0.1426   -3.9259 H         1 <0>         0.1288
     35 H8          2.3146   -2.3139   -4.0493 H         1 <0>         0.1398
     36 H9          0.2237   -2.5911   -0.3432 H         1 <0>         0.1408
     37 H10         4.6836   -4.1820   -3.0466 H         1 <0>         0.1227
     38 H11         3.9009   -3.3104   -1.7065 H         1 <0>         0.1018
     39 H12         5.2531   -5.1353   -0.7929 H         1 <0>         0.0625
     40 H13         3.5298   -5.5123   -0.5550 H         1 <0>         0.0600
     41 H14         4.7241   -7.3583   -1.4886 H         1 <0>         0.2070
     42 H15        -2.9833   -6.0875   -2.2376 H         1 <0>         0.1380
     43 H16        -4.8505   -5.1594   -0.9354 H         1 <0>         0.1353
     44 H17        -5.0995   -2.7251   -0.6903 H         1 <0>         0.1351
     45 H18        -3.4845   -1.2006   -1.7451 H         1 <0>         0.1453
     46 H19        -1.6515   -1.6661   -4.0662 H         1 <0>         0.2288
@<TRIPOS>BOND
     1    1    2 1
     2    1   30 1
     3    1   31 1
     4    1   32 1
     5    2    3 1
     6    3    8 ar
     7    3    4 ar
     8    4    5 ar
     9    4   33 1
    10    5    6 ar
    11    5   34 1
    12    6    7 ar
    13    6   35 1
    14    7    8 ar
    15    7    9 1
    16    8   36 1
    17    9   10 1
    18    9   19 1
    19    9   11 1
    20   11   16 1
    21   11   12 2
    22   12   13 1
    23   12   23 1
    24   13   14 1
    25   13   15 1
    26   15   16 2
    27   16   17 1
    28   17   18 2
    29   17   19 am
    30   19   20 1
    31   20   21 1
    32   20   37 1
    33   20   38 1
    34   21   22 1
    35   21   39 1
    36   21   40 1
    37   22   41 1
    38   23   28 ar
    39   23   24 ar
    40   24   25 ar
    41   24   42 1
    42   25   26 ar
    43   25   43 1
    44   26   27 ar
    45   26   44 1
    46   27   28 ar
    47   27   45 1
    48   28   29 1
    49   29   46 1
@<TRIPOS>MOLECULE
ZINC02218054
   46    49     0     0     0
SMALL
USER_CHARGES

@<TRIPOS>ATOM
      1 C1         -0.0169    1.4247    0.0099 C.3       1 <0>        -0.0618
      2 O1          0.0023   -0.0042    0.0020 O.3       1 <0>        -0.2136
      3 C2          0.6060   -0.6072   -1.0556 C.ar      1 <0>         0.1007
      4 C3          1.1635    0.1605   -2.0681 C.ar      1 <0>        -0.2149
      5 C4          1.7812   -0.4548   -3.1395 C.ar      1 <0>        -0.0939
      6 C5          1.8350   -1.8350   -3.2087 C.ar      1 <0>        -0.1461
      7 C6          1.2754   -2.6021   -2.2040 C.ar      1 <0>        -0.0492
      8 C7          0.6610   -1.9913   -1.1276 C.ar      1 <0>        -0.1312
      9 C8          1.3360   -4.1058   -2.2826 C.3       1 <0>         0.1446
     10 H1          1.1967   -4.5380   -1.2917 H         1 <0>         0.1132
     11 C9          0.2783   -4.6169   -3.2222 C.2       1 <0>        -0.1688
     12 C10        -1.0426   -4.7172   -3.5193 C.2       1 <0>        -0.0256
     13 N1         -1.1306   -5.4271   -4.6825 N.2       1 <0>        -0.1045
     14 H2          0.2379   -6.2720   -5.9200 H         1 <0>         0.2931
     15 N2          0.0454   -5.7496   -5.0893 N.pl3     1 <0>        -0.0046
     16 C11         0.9621   -5.2953   -4.2582 C.2       1 <0>        -0.2060
     17 C12         2.4067   -5.2135   -3.9766 C.2       1 <0>         0.3895
     18 O2          3.2776   -5.6969   -4.6737 O.2       1 <0>        -0.3412
     19 N3          2.6255   -4.5297   -2.8404 N.am      1 <0>        -0.3339
     20 C13         3.9389   -4.2527   -2.2535 C.3       1 <0>         0.0227
     21 C14         4.3184   -5.3840   -1.2959 C.3       1 <0>        -0.0258
     22 O3          4.4821   -6.5973   -2.0330 O.3       1 <0>        -0.3357
     23 C15        -2.1681   -4.1643   -2.7343 C.ar      1 <0>        -0.0320
     24 C16        -3.0884   -5.0205   -2.1302 C.ar      1 <0>        -0.0901
     25 C17        -4.1359   -4.4994   -1.3989 C.ar      1 <0>        -0.1440
     26 C18        -4.2773   -3.1294   -1.2620 C.ar      1 <0>        -0.1095
     27 C19        -3.3711   -2.2715   -1.8559 C.ar      1 <0>        -0.1558
     28 C20        -2.3113   -2.7799   -2.5893 C.ar      1 <0>         0.0926
     29 O4         -1.4171   -1.9376   -3.1691 O.3       1 <0>        -0.2801
     30 H3          1.0057    1.8019    0.0022 H         1 <0>         0.0662
     31 H4         -0.5441    1.7859   -0.8732 H         1 <0>         0.0678
     32 H5         -0.5272    1.7763    0.9067 H         1 <0>         0.1056
     33 H6          1.1176    1.2383   -2.0168 H         1 <0>         0.1311
     34 H7          2.2188    0.1423   -3.9258 H         1 <0>         0.1282
     35 H8          2.3148   -2.3142   -4.0491 H         1 <0>         0.1358
     36 H9          0.2237   -2.5912   -0.3431 H         1 <0>         0.1420
     37 H10         4.6836   -4.1825   -3.0463 H         1 <0>         0.1223
     38 H11         3.9009   -3.3108   -1.7062 H         1 <0>         0.1046
     39 H12         5.2529   -5.1358   -0.7926 H         1 <0>         0.0641
     40 H13         3.5296   -5.5127   -0.5547 H         1 <0>         0.0617
     41 H14         4.7238   -7.3588   -1.4883 H         1 <0>         0.2079
     42 H15        -2.9812   -6.0901   -2.2345 H         1 <0>         0.1411
     43 H16        -4.8484   -5.1630   -0.9317 H         1 <0>         0.1324
     44 H17        -5.0997   -2.7288   -0.6880 H         1 <0>         0.1316
     45 H18        -3.4870   -1.2034   -1.7449 H         1 <0>         0.1413
     46 H19        -1.6550   -1.6686   -4.0669 H         1 <0>         0.2283
@<TRIPOS>BOND
     1    1    2 1
     2    1   30 1
     3    1   31 1
     4    1   32 1
     5    2    3 1
     6    3    8 ar
     7    3    4 ar
     8    4    5 ar
     9    4   33 1
    10    5    6 ar
    11    5   34 1
    12    6    7 ar
    13    6   35 1
    14    7    8 ar
    15    7    9 1
    16    8   36 1
    17    9   10 1
    18    9   19 1
    19    9   11 1
    20   11   12 1
    21   11   16 2
    22   12   23 1
    23   12   13 2
    24   13   15 1
    25   14   15 1
    26   15   16 1
    27   16   17 1
    28   17   18 2
    29   17   19 am
    30   19   20 1
    31   20   21 1
    32   20   37 1
    33   20   38 1
    34   21   22 1
    35   21   39 1
    36   21   40 1
    37   22   41 1
    38   23   28 ar
    39   23   24 ar
    40   24   25 ar
    41   24   42 1
    42   25   26 ar
    43   25   43 1
    44   26   27 ar
    45   26   44 1
    46   27   28 ar
    47   27   45 1
    48   28   29 1
    49   29   46 1
@<TRIPOS>MOLECULE
ZINC02218054
   46    49     0     0     0
SMALL
USER_CHARGES

@<TRIPOS>ATOM
      1 C1         -0.0169    1.4247    0.0099 C.3       1 <0>        -0.0618
      2 O1          0.0023   -0.0042    0.0020 O.3       1 <0>        -0.2136
      3 C2          0.6060   -0.6072   -1.0556 C.ar      1 <0>         0.1007
      4 C3          1.1635    0.1605   -2.0681 C.ar      1 <0>        -0.2149
      5 C4          1.7812   -0.4548   -3.1395 C.ar      1 <0>        -0.0939
      6 C5          1.8350   -1.8350   -3.2087 C.ar      1 <0>        -0.1461
      7 C6          1.2754   -2.6021   -2.2040 C.ar      1 <0>        -0.0492
      8 C7          0.6610   -1.9913   -1.1276 C.ar      1 <0>        -0.1312
      9 C8          1.3360   -4.1058   -2.2826 C.3       1 <0>         0.1446
     10 H1          1.1967   -4.5380   -1.2917 H         1 <0>         0.1132
     11 C9          0.2783   -4.6169   -3.2222 C.2       1 <0>        -0.1688
     12 C10        -1.0426   -4.7172   -3.5193 C.2       1 <0>        -0.0256
     13 N1         -1.1306   -5.4271   -4.6825 N.2       1 <0>        -0.1045
     14 H2          0.2379   -6.2720   -5.9200 H         1 <0>         0.2931
     15 N2          0.0454   -5.7496   -5.0893 N.pl3     1 <0>        -0.0046
     16 C11         0.9621   -5.2953   -4.2582 C.2       1 <0>        -0.2060
     17 C12         2.4067   -5.2135   -3.9766 C.2       1 <0>         0.3895
     18 O2          3.2776   -5.6969   -4.6737 O.2       1 <0>        -0.3412
     19 N3          2.6255   -4.5297   -2.8404 N.am      1 <0>        -0.3339
     20 C13         3.9389   -4.2527   -2.2535 C.3       1 <0>         0.0227
     21 C14         4.3184   -5.3840   -1.2959 C.3       1 <0>        -0.0258
     22 O3          4.4821   -6.5973   -2.0330 O.3       1 <0>        -0.3357
     23 C15        -2.1681   -4.1643   -2.7343 C.ar      1 <0>        -0.0320
     24 C16        -3.0884   -5.0205   -2.1302 C.ar      1 <0>        -0.0901
     25 C17        -4.1359   -4.4994   -1.3989 C.ar      1 <0>        -0.1440
     26 C18        -4.2773   -3.1294   -1.2620 C.ar      1 <0>        -0.1095
     27 C19        -3.3711   -2.2715   -1.8559 C.ar      1 <0>        -0.1558
     28 C20        -2.3113   -2.7799   -2.5893 C.ar      1 <0>         0.0926
     29 O4         -1.4171   -1.9376   -3.1691 O.3       1 <0>        -0.2801
     30 H3          1.0057    1.8019    0.0022 H         1 <0>         0.0662
     31 H4         -0.5441    1.7859   -0.8732 H         1 <0>         0.0678
     32 H5         -0.5272    1.7763    0.9067 H         1 <0>         0.1056
     33 H6          1.1176    1.2383   -2.0168 H         1 <0>         0.1311
     34 H7          2.2188    0.1423   -3.9258 H         1 <0>         0.1282
     35 H8          2.3148   -2.3142   -4.0491 H         1 <0>         0.1358
     36 H9          0.2237   -2.5912   -0.3431 H         1 <0>         0.1420
     37 H10         4.6836   -4.1825   -3.0463 H         1 <0>         0.1223
     38 H11         3.9009   -3.3108   -1.7062 H         1 <0>         0.1046
     39 H12         5.2529   -5.1358   -0.7926 H         1 <0>         0.0641
     40 H13         3.5296   -5.5127   -0.5547 H         1 <0>         0.0617
     41 H14         4.7238   -7.3588   -1.4883 H         1 <0>         0.2079
     42 H15        -2.9812   -6.0901   -2.2345 H         1 <0>         0.1411
     43 H16        -4.8484   -5.1630   -0.9317 H         1 <0>         0.1324
     44 H17        -5.0997   -2.7288   -0.6880 H         1 <0>         0.1316
     45 H18        -3.4870   -1.2034   -1.7449 H         1 <0>         0.1413
     46 H19        -1.6550   -1.6686   -4.0669 H         1 <0>         0.2283
@<TRIPOS>BOND
     1    1    2 1
     2    1   30 1
     3    1   31 1
     4    1   32 1
     5    2    3 1
     6    3    8 ar
     7    3    4 ar
     8    4    5 ar
     9    4   33 1
    10    5    6 ar
    11    5   34 1
    12    6    7 ar
    13    6   35 1
    14    7    8 ar
    15    7    9 1
    16    8   36 1
    17    9   10 1
    18    9   19 1
    19    9   11 1
    20   11   12 1
    21   11   16 2
    22   12   23 1
    23   12   13 2
    24   13   15 1
    25   14   15 1
    26   15   16 1
    27   16   17 1
    28   17   18 2
    29   17   19 am
    30   19   20 1
    31   20   21 1
    32   20   37 1
    33   20   38 1
    34   21   22 1
    35   21   39 1
    36   21   40 1
    37   22   41 1
    38   23   28 ar
    39   23   24 ar
    40   24   25 ar
    41   24   42 1
    42   25   26 ar
    43   25   43 1
    44   26   27 ar
    45   26   44 1
    46   27   28 ar
    47   27   45 1
    48   28   29 1
    49   29   46 1
@<TRIPOS>MOLECULE
ZINC02218057
   46    49     0     0     0
SMALL
USER_CHARGES

@<TRIPOS>ATOM
      1 C1         -0.9818    1.9437   -6.1936 C.3       1 <0>        -0.0623
      2 O1         -0.1050    2.5061   -5.2154 O.3       1 <0>        -0.2131
      3 C2         -0.4043    3.7517   -4.7619 C.ar      1 <0>         0.0957
      4 C3         -1.5195    4.4189   -5.2482 C.ar      1 <0>        -0.2184
      5 C4         -1.8218    5.6847   -4.7853 C.ar      1 <0>        -0.0907
      6 C5         -1.0171    6.2849   -3.8342 C.ar      1 <0>        -0.1485
      7 C6          0.0975    5.6244   -3.3520 C.ar      1 <0>        -0.0562
      8 C7          0.4042    4.3581   -3.8118 C.ar      1 <0>        -0.1467
      9 C8          0.9752    6.2835   -2.3195 C.3       1 <0>         0.1575
     10 H1          1.9665    5.8304   -2.3260 H         1 <0>         0.1209
     11 C9          0.3559    6.1515   -0.9549 C.2       1 <0>        -0.2093
     12 C10        -0.0818    5.3272    0.0319 C.2       1 <0>        -0.0107
     13 N1         -0.5543    6.1291    1.0312 N.pl3     1 <0>        -0.1030
     14 H2         -0.9486    5.8035    1.8906 H         1 <0>         0.2946
     15 N2         -0.4171    7.3646    0.7034 N.2       1 <0>        -0.0117
     16 C11         0.1264    7.4673   -0.4930 C.2       1 <0>        -0.1743
     17 C12         0.5880    8.4002   -1.5368 C.2       1 <0>         0.3948
     18 O2          0.5340    9.6121   -1.4568 O.2       1 <0>        -0.3444
     19 N3          1.0771    7.7224   -2.5893 N.am      1 <0>        -0.3363
     20 C13         1.6231    8.3230   -3.8089 C.3       1 <0>         0.0239
     21 C14         3.1261    8.5510   -3.6363 C.3       1 <0>        -0.0273
     22 O3          3.7873    7.2909   -3.5067 O.3       1 <0>        -0.3606
     23 C15        -0.0573    3.8480    0.0233 C.ar      1 <0>        -0.0598
     24 C16        -1.2512    3.1273    0.0308 C.ar      1 <0>        -0.0969
     25 C17        -1.2224    1.7479    0.0174 C.ar      1 <0>        -0.1389
     26 C18        -0.0126    1.0758    0.0080 C.ar      1 <0>        -0.1025
     27 C19         1.1769    1.7796    0.0004 C.ar      1 <0>        -0.1541
     28 C20         1.1640    3.1650    0.0079 C.ar      1 <0>         0.0985
     29 O4          2.3325    3.8577    0.0010 O.3       1 <0>        -0.2851
     30 H3         -0.6294    0.9496   -6.4688 H         1 <0>         0.1076
     31 H4         -1.9880    1.8711   -5.7808 H         1 <0>         0.0679
     32 H5         -0.9969    2.5814   -7.0775 H         1 <0>         0.0685
     33 H6         -2.1508    3.9488   -5.9877 H         1 <0>         0.1344
     34 H7         -2.6899    6.2043   -5.1632 H         1 <0>         0.1322
     35 H8         -1.2577    7.2729   -3.4703 H         1 <0>         0.1420
     36 H9          1.2730    3.8409   -3.4321 H         1 <0>         0.1391
     37 H10         1.4516    7.6535   -4.6517 H         1 <0>         0.1075
     38 H11         1.1300    9.2768   -3.9964 H         1 <0>         0.1185
     39 H12         3.5160    9.0780   -4.5071 H         1 <0>         0.0659
     40 H13         3.3027    9.1477   -2.7414 H         1 <0>         0.0809
     41 H14         4.7453    7.3591   -3.3936 H         1 <0>         0.2125
     42 H15        -2.1971    3.6483    0.0423 H         1 <0>         0.1383
     43 H16        -2.1475    1.1905    0.0187 H         1 <0>         0.1352
     44 H17         0.0021   -0.0041    0.0020 H         1 <0>         0.1352
     45 H18         2.1175    1.2490   -0.0118 H         1 <0>         0.1448
     46 H19         2.6627    4.0630   -0.8844 H         1 <0>         0.2342
@<TRIPOS>BOND
     1    1    2 1
     2    1   30 1
     3    1   31 1
     4    1   32 1
     5    2    3 1
     6    3    8 ar
     7    3    4 ar
     8    4    5 ar
     9    4   33 1
    10    5    6 ar
    11    5   34 1
    12    6    7 ar
    13    6   35 1
    14    7    8 ar
    15    7    9 1
    16    8   36 1
    17    9   10 1
    18    9   19 1
    19    9   11 1
    20   11   16 1
    21   11   12 2
    22   12   13 1
    23   12   23 1
    24   13   14 1
    25   13   15 1
    26   15   16 2
    27   16   17 1
    28   17   18 2
    29   17   19 am
    30   19   20 1
    31   20   21 1
    32   20   37 1
    33   20   38 1
    34   21   22 1
    35   21   39 1
    36   21   40 1
    37   22   41 1
    38   23   28 ar
    39   23   24 ar
    40   24   25 ar
    41   24   42 1
    42   25   26 ar
    43   25   43 1
    44   26   27 ar
    45   26   44 1
    46   27   28 ar
    47   27   45 1
    48   28   29 1
    49   29   46 1
@<TRIPOS>MOLECULE
ZINC02218057
   46    49     0     0     0
SMALL
USER_CHARGES

@<TRIPOS>ATOM
      1 C1         -0.9765    1.9564   -6.2012 C.3       1 <0>        -0.0624
      2 O1         -0.1004    2.5144   -5.2198 O.3       1 <0>        -0.2116
      3 C2         -0.3968    3.7602   -4.7652 C.ar      1 <0>         0.0977
      4 C3         -1.5085    4.4319   -5.2534 C.ar      1 <0>        -0.2174
      5 C4         -1.8078    5.6979   -4.7893 C.ar      1 <0>        -0.0902
      6 C5         -1.0037    6.2940   -3.8352 C.ar      1 <0>        -0.1504
      7 C6          0.1074    5.6291   -3.3510 C.ar      1 <0>        -0.0551
      8 C7          0.4112    4.3625   -3.8120 C.ar      1 <0>        -0.1441
      9 C8          0.9846    6.2837   -2.3152 C.3       1 <0>         0.1475
     10 H1          1.9744    5.8273   -2.3198 H         1 <0>         0.1256
     11 C9          0.3612    6.1516   -0.9525 C.2       1 <0>        -0.1848
     12 C10        -0.0814    5.3272    0.0321 C.2       1 <0>        -0.0137
     13 N1         -0.5536    6.1291    1.0315 N.2       1 <0>        -0.0901
     14 H2         -0.6903    8.1393    1.2737 H         1 <0>         0.2932
     15 N2         -0.4167    7.3646    0.7036 N.pl3     1 <0>        -0.0033
     16 C11         0.1348    7.4674   -0.4891 C.2       1 <0>        -0.2068
     17 C12         0.6023    8.4004   -1.5302 C.2       1 <0>         0.3852
     18 O2          0.5521    9.6124   -1.4485 O.2       1 <0>        -0.3656
     19 N3          1.0919    7.7226   -2.5825 N.am      1 <0>        -0.3271
     20 C13         1.6431    8.3233   -3.7997 C.3       1 <0>         0.0215
     21 C14         3.1464    8.5461   -3.6228 C.3       1 <0>        -0.0266
     22 O3          3.8031    7.2836   -3.4934 O.3       1 <0>        -0.3597
     23 C15        -0.0567    3.8480    0.0236 C.ar      1 <0>        -0.0284
     24 C16        -1.2505    3.1272    0.0315 C.ar      1 <0>        -0.0861
     25 C17        -1.2216    1.7478    0.0182 C.ar      1 <0>        -0.1413
     26 C18        -0.0117    1.0758    0.0084 C.ar      1 <0>        -0.1080
     27 C19         1.1777    1.7797    0.0004 C.ar      1 <0>        -0.1557
     28 C20         1.1647    3.1651    0.0078 C.ar      1 <0>         0.0902
     29 O4          2.3331    3.8580    0.0005 O.3       1 <0>        -0.2851
     30 H3         -0.6266    0.9615   -6.4771 H         1 <0>         0.1083
     31 H4         -1.9840    1.8864   -5.7912 H         1 <0>         0.0687
     32 H5         -0.9871    2.5955   -7.0842 H         1 <0>         0.0678
     33 H6         -2.1394    3.9650   -5.9953 H         1 <0>         0.1349
     34 H7         -2.6732    6.2210   -5.1687 H         1 <0>         0.1318
     35 H8         -1.2420    7.2822   -3.4704 H         1 <0>         0.1382
     36 H9          1.2773    3.8418   -3.4308 H         1 <0>         0.1412
     37 H10         1.4717    7.6557   -4.6440 H         1 <0>         0.1104
     38 H11         1.1537    9.2790   -3.9870 H         1 <0>         0.1181
     39 H12         3.5404    9.0732   -4.4917 H         1 <0>         0.0672
     40 H13         3.3226    9.1408   -2.7265 H         1 <0>         0.0791
     41 H14         4.7610    7.3485   -3.3776 H         1 <0>         0.2137
     42 H15        -2.1965    3.6481    0.0433 H         1 <0>         0.1415
     43 H16        -2.1466    1.1903    0.0198 H         1 <0>         0.1322
     44 H17         0.0031   -0.0041    0.0025 H         1 <0>         0.1317
     45 H18         2.1184    1.2493   -0.0121 H         1 <0>         0.1410
     46 H19         2.6630    4.0633   -0.8850 H         1 <0>         0.2270
@<TRIPOS>BOND
     1    1    2 1
     2    1   30 1
     3    1   31 1
     4    1   32 1
     5    2    3 1
     6    3    8 ar
     7    3    4 ar
     8    4    5 ar
     9    4   33 1
    10    5    6 ar
    11    5   34 1
    12    6    7 ar
    13    6   35 1
    14    7    8 ar
    15    7    9 1
    16    8   36 1
    17    9   10 1
    18    9   19 1
    19    9   11 1
    20   11   12 1
    21   11   16 2
    22   12   23 1
    23   12   13 2
    24   13   15 1
    25   14   15 1
    26   15   16 1
    27   16   17 1
    28   17   18 2
    29   17   19 am
    30   19   20 1
    31   20   21 1
    32   20   37 1
    33   20   38 1
    34   21   22 1
    35   21   39 1
    36   21   40 1
    37   22   41 1
    38   23   28 ar
    39   23   24 ar
    40   24   25 ar
    41   24   42 1
    42   25   26 ar
    43   25   43 1
    44   26   27 ar
    45   26   44 1
    46   27   28 ar
    47   27   45 1
    48   28   29 1
    49   29   46 1
@<TRIPOS>MOLECULE
ZINC02218057
   46    49     0     0     0
SMALL
USER_CHARGES

@<TRIPOS>ATOM
      1 C1         -0.9765    1.9564   -6.2012 C.3       1 <0>        -0.0624
      2 O1         -0.1004    2.5144   -5.2198 O.3       1 <0>        -0.2116
      3 C2         -0.3968    3.7602   -4.7652 C.ar      1 <0>         0.0977
      4 C3         -1.5085    4.4319   -5.2534 C.ar      1 <0>        -0.2174
      5 C4         -1.8078    5.6979   -4.7893 C.ar      1 <0>        -0.0902
      6 C5         -1.0037    6.2940   -3.8352 C.ar      1 <0>        -0.1504
      7 C6          0.1074    5.6291   -3.3510 C.ar      1 <0>        -0.0551
      8 C7          0.4112    4.3625   -3.8120 C.ar      1 <0>        -0.1441
      9 C8          0.9846    6.2837   -2.3152 C.3       1 <0>         0.1475
     10 H1          1.9744    5.8273   -2.3198 H         1 <0>         0.1256
     11 C9          0.3612    6.1516   -0.9525 C.2       1 <0>        -0.1848
     12 C10        -0.0814    5.3272    0.0321 C.2       1 <0>        -0.0137
     13 N1         -0.5536    6.1291    1.0315 N.2       1 <0>        -0.0901
     14 H2         -0.6903    8.1393    1.2737 H         1 <0>         0.2932
     15 N2         -0.4167    7.3646    0.7036 N.pl3     1 <0>        -0.0033
     16 C11         0.1348    7.4674   -0.4891 C.2       1 <0>        -0.2068
     17 C12         0.6023    8.4004   -1.5302 C.2       1 <0>         0.3852
     18 O2          0.5521    9.6124   -1.4485 O.2       1 <0>        -0.3656
     19 N3          1.0919    7.7226   -2.5825 N.am      1 <0>        -0.3271
     20 C13         1.6431    8.3233   -3.7997 C.3       1 <0>         0.0215
     21 C14         3.1464    8.5461   -3.6228 C.3       1 <0>        -0.0266
     22 O3          3.8031    7.2836   -3.4934 O.3       1 <0>        -0.3597
     23 C15        -0.0567    3.8480    0.0236 C.ar      1 <0>        -0.0284
     24 C16        -1.2505    3.1272    0.0315 C.ar      1 <0>        -0.0861
     25 C17        -1.2216    1.7478    0.0182 C.ar      1 <0>        -0.1413
     26 C18        -0.0117    1.0758    0.0084 C.ar      1 <0>        -0.1080
     27 C19         1.1777    1.7797    0.0004 C.ar      1 <0>        -0.1557
     28 C20         1.1647    3.1651    0.0078 C.ar      1 <0>         0.0902
     29 O4          2.3331    3.8580    0.0005 O.3       1 <0>        -0.2851
     30 H3         -0.6266    0.9615   -6.4771 H         1 <0>         0.1083
     31 H4         -1.9840    1.8864   -5.7912 H         1 <0>         0.0687
     32 H5         -0.9871    2.5955   -7.0842 H         1 <0>         0.0678
     33 H6         -2.1394    3.9650   -5.9953 H         1 <0>         0.1349
     34 H7         -2.6732    6.2210   -5.1687 H         1 <0>         0.1318
     35 H8         -1.2420    7.2822   -3.4704 H         1 <0>         0.1382
     36 H9          1.2773    3.8418   -3.4308 H         1 <0>         0.1412
     37 H10         1.4717    7.6557   -4.6440 H         1 <0>         0.1104
     38 H11         1.1537    9.2790   -3.9870 H         1 <0>         0.1181
     39 H12         3.5404    9.0732   -4.4917 H         1 <0>         0.0672
     40 H13         3.3226    9.1408   -2.7265 H         1 <0>         0.0791
     41 H14         4.7610    7.3485   -3.3776 H         1 <0>         0.2137
     42 H15        -2.1965    3.6481    0.0433 H         1 <0>         0.1415
     43 H16        -2.1466    1.1903    0.0198 H         1 <0>         0.1322
     44 H17         0.0031   -0.0041    0.0025 H         1 <0>         0.1317
     45 H18         2.1184    1.2493   -0.0121 H         1 <0>         0.1410
     46 H19         2.6630    4.0633   -0.8850 H         1 <0>         0.2270
@<TRIPOS>BOND
     1    1    2 1
     2    1   30 1
     3    1   31 1
     4    1   32 1
     5    2    3 1
     6    3    8 ar
     7    3    4 ar
     8    4    5 ar
     9    4   33 1
    10    5    6 ar
    11    5   34 1
    12    6    7 ar
    13    6   35 1
    14    7    8 ar
    15    7    9 1
    16    8   36 1
    17    9   10 1
    18    9   19 1
    19    9   11 1
    20   11   12 1
    21   11   16 2
    22   12   23 1
    23   12   13 2
    24   13   15 1
    25   14   15 1
    26   15   16 1
    27   16   17 1
    28   17   18 2
    29   17   19 am
    30   19   20 1
    31   20   21 1
    32   20   37 1
    33   20   38 1
    34   21   22 1
    35   21   39 1
    36   21   40 1
    37   22   41 1
    38   23   28 ar
    39   23   24 ar
    40   24   25 ar
    41   24   42 1
    42   25   26 ar
    43   25   43 1
    44   26   27 ar
    45   26   44 1
    46   27   28 ar
    47   27   45 1
    48   28   29 1
    49   29   46 1
@<TRIPOS>MOLECULE
ZINC02218983
   41    43     0     0     0
SMALL
USER_CHARGES

@<TRIPOS>ATOM
      1 C1          2.3365    5.5186   -0.8146 C.3       1 <0>        -0.1885
      2 C2          2.3239    4.0712   -0.3952 C.2       1 <0>         0.1066
      3 C3          1.1442    3.4496   -0.1830 C.2       1 <0>        -0.2600
      4 C4          1.1269    2.0949    0.2088 C.2       1 <0>         0.1821
      5 C5          2.3244    1.4304    0.3680 C.2       1 <0>        -0.2705
      6 C6          3.5238    2.1162    0.1369 C.2       1 <0>         0.3491
      7 O1          4.5919    1.5403    0.2737 O.2       1 <0>        -0.3783
      8 N1          3.5001    3.4093   -0.2362 N.am      1 <0>        -0.2066
      9 C7          4.7620    4.1141   -0.4750 C.3       1 <0>        -0.0298
     10 C8          5.2307    3.8496   -1.9072 C.3       1 <0>        -0.0354
     11 O2          4.2984    4.4216   -2.8268 O.3       1 <0>        -0.3012
     12 C9          4.6445    4.2302   -4.2000 C.3       1 <0>        -0.0612
     13 C10         2.3522   -0.0145    0.7846 C.3       1 <0>         0.1334
     14 H1          3.0863   -0.5485    0.1811 H         1 <0>         0.1344
     15 C11         0.9975   -0.6362    0.5871 C.2       1 <0>        -0.2670
     16 C12        -0.1079    0.1275    0.4203 C.2       1 <0>         0.2683
     17 O3         -0.0509    1.4708    0.4215 O.3       1 <0>        -0.1421
     18 N2         -1.3222   -0.4876    0.2444 N.pl3     1 <0>        -0.3856
     19 C13         0.8741   -2.0629    0.5757 C.1       1 <0>        -0.0594
     20 N3          0.7762   -3.1946    0.5667 N.1       1 <0>        -0.0761
     21 C14         2.7377   -0.1081    2.2384 C.2       1 <0>        -0.2360
     22 C15         3.8019   -0.7311    2.8010 C.2       1 <0>        -0.1604
     23 C16         3.9589   -0.6821    4.1734 C.2       1 <0>        -0.1694
     24 C17         3.0382   -0.0215    4.9172 C.2       1 <0>        -0.3131
     25 S1          1.9069    0.5664    3.6674 S.3       1 <0>         0.2996
     26 H2          2.4090    5.5816   -1.9004 H         1 <0>         0.1241
     27 H3          1.4169    6.0009   -0.4833 H         1 <0>         0.0972
     28 H4          3.1927    6.0201   -0.3636 H         1 <0>         0.0946
     29 H5          0.2170    3.9877   -0.3139 H         1 <0>         0.1603
     30 H6          4.6128    5.1845   -0.3333 H         1 <0>         0.1073
     31 H7          5.5162    3.7565    0.2260 H         1 <0>         0.1359
     32 H8          6.2120    4.2999   -2.0574 H         1 <0>         0.0766
     33 H9          5.2946    2.7747   -2.0760 H         1 <0>         0.0949
     34 H10         4.6962    3.1631   -4.4163 H         1 <0>         0.0628
     35 H11         3.8877    4.6931   -4.8333 H         1 <0>         0.0997
     36 H12         5.6136    4.6883   -4.3977 H         1 <0>         0.0570
     37 H13        -2.1232    0.0460    0.1233 H         1 <0>         0.2289
     38 H14        -1.3795   -1.4559    0.2411 H         1 <0>         0.2595
     39 H15         4.5181   -1.2556    2.1858 H         1 <0>         0.1479
     40 H16         4.8005   -1.1663    4.6465 H         1 <0>         0.1387
     41 H17         2.9992    0.1143    5.9879 H         1 <0>         0.1816
@<TRIPOS>BOND
     1    1    2 1
     2    1   26 1
     3    1   27 1
     4    1   28 1
     5    2    8 1
     6    2    3 2
     7    3    4 1
     8    3   29 1
     9    4   17 1
    10    4    5 2
    11    5    6 1
    12    5   13 1
    13    6    7 2
    14    6    8 am
    15    8    9 1
    16    9   10 1
    17    9   30 1
    18    9   31 1
    19   10   11 1
    20   10   32 1
    21   10   33 1
    22   11   12 1
    23   12   34 1
    24   12   35 1
    25   12   36 1
    26   13   14 1
    27   13   15 1
    28   13   21 1
    29   15   16 2
    30   15   19 1
    31   16   17 1
    32   16   18 1
    33   18   37 1
    34   18   38 1
    35   19   20 3
    36   21   25 1
    37   21   22 2
    38   22   23 1
    39   22   39 1
    40   23   24 2
    41   23   40 1
    42   24   25 1
    43   24   41 1
@<TRIPOS>MOLECULE
ZINC02222522
   43    46     0     0     0
SMALL
USER_CHARGES

@<TRIPOS>ATOM
      1 C1         -0.1551   -5.4759   -7.7131 C.3       1 <0>        -0.0380
      2 N1         -0.4957   -4.1618   -7.1624 N.am      1 <0>        -0.2861
      3 C2         -1.3358   -3.9150   -6.0769 C.ar      1 <0>         0.0326
      4 C3         -2.0638   -4.7367   -5.2308 C.ar      1 <0>        -0.1481
      5 C4         -2.8230   -4.1814   -4.2193 C.ar      1 <0>        -0.0151
      6 C5         -2.8577   -2.8082   -4.0489 C.ar      1 <0>        -0.7620
      7 C6         -2.1393   -1.9828   -4.8916 C.ar      1 <0>         0.0078
      8 C7         -1.3704   -2.5312   -5.9063 C.ar      1 <0>        -0.0154
      9 O1         -0.5764   -1.9879   -6.8613 O.3       1 <0>        -0.1241
     10 C8         -0.0542   -2.9704   -7.6121 C.2       1 <0>         0.3929
     11 O2          0.7008   -2.8104   -8.5517 O.2       1 <0>        -0.3166
     12 S1         -3.8287   -2.1094   -2.7552 S.o2      1 <0>         2.7647
     13 O3         -4.8418   -3.0580   -2.4501 O.2       1 <0>        -0.9147
     14 O4         -4.1263   -0.7760   -3.1458 O.2       1 <0>        -0.9065
     15 N2         -2.8592   -2.0054   -1.4168 N.pl3     1 <0>        -0.8849
     16 C9         -1.6935   -1.1181   -1.4239 C.3       1 <0>        -0.0066
     17 C10        -1.1970   -0.9169    0.0093 C.3       1 <0>        -0.0906
     18 C11         0.0021   -0.0041    0.0020 C.2       1 <0>        -0.1713
     19 C12         1.2909   -0.3790   -0.0123 C.2       1 <0>        -0.0656
     20 N3          2.0983    0.7258   -0.0141 N.pl3     1 <0>        -0.1987
     21 H1          3.0681    0.7073   -0.0231 H         1 <0>         0.2418
     22 C13         1.3290    1.8677   -0.0006 C.ar      1 <0>         0.0070
     23 C14        -0.0178    1.4607    0.0101 C.ar      1 <0>        -0.0868
     24 C15        -1.0343    2.4172    0.0300 C.ar      1 <0>        -0.0783
     25 C16        -0.7155    3.7461    0.0298 C.ar      1 <0>        -0.1527
     26 C17         0.6114    4.1527    0.0193 C.ar      1 <0>        -0.1054
     27 C18         1.6305    3.2255    0.0042 C.ar      1 <0>        -0.1431
     28 H2         -0.8757   -5.7440   -8.4858 H         1 <0>         0.0899
     29 H3          0.8449   -5.4406   -8.1454 H         1 <0>         0.1130
     30 H4         -0.1811   -6.2209   -6.9179 H         1 <0>         0.0899
     31 H5         -2.0374   -5.8084   -5.3619 H         1 <0>         0.1434
     32 H6         -3.3909   -4.8204   -3.5592 H         1 <0>         0.1597
     33 H7         -2.1733   -0.9117   -4.7577 H         1 <0>         0.1690
     34 H8         -3.0631   -2.5320   -0.6281 H         1 <0>         0.2448
     35 H9         -1.9729   -0.1546   -1.8502 H         1 <0>         0.1093
     36 H10        -0.9006   -1.5646   -2.0238 H         1 <0>         0.0752
     37 H11        -0.9176   -1.8803    0.4356 H         1 <0>         0.0838
     38 H12        -1.9899   -0.4703    0.6092 H         1 <0>         0.1006
     39 H13         1.6391   -1.4013   -0.0211 H         1 <0>         0.1644
     40 H14        -2.0691    2.1081    0.0430 H         1 <0>         0.1328
     41 H15        -1.5024    4.4857    0.0412 H         1 <0>         0.1311
     42 H16         0.8476    5.2066    0.0226 H         1 <0>         0.1310
     43 H17         2.6600    3.5519   -0.0043 H         1 <0>         0.1260
@<TRIPOS>BOND
     1    1    2 1
     2    1   28 1
     3    1   29 1
     4    1   30 1
     5    2   10 am
     6    2    3 1
     7    3    8 ar
     8    3    4 ar
     9    4    5 ar
    10    4   31 1
    11    5    6 ar
    12    5   32 1
    13    6    7 ar
    14    6   12 1
    15    7    8 ar
    16    7   33 1
    17    8    9 1
    18    9   10 1
    19   10   11 2
    20   12   13 2
    21   12   14 2
    22   12   15 1
    23   15   16 1
    24   15   34 1
    25   16   17 1
    26   16   35 1
    27   16   36 1
    28   17   18 1
    29   17   37 1
    30   17   38 1
    31   18   23 1
    32   18   19 2
    33   19   20 1
    34   19   39 1
    35   20   21 1
    36   20   22 1
    37   22   27 ar
    38   22   23 ar
    39   23   24 ar
    40   24   25 ar
    41   24   40 1
    42   25   26 ar
    43   25   41 1
    44   26   27 ar
    45   26   42 1
    46   27   43 1
@<TRIPOS>MOLECULE
ZINC02222691
   44    46     0     0     0
SMALL
USER_CHARGES

@<TRIPOS>ATOM
      1 C1         -5.5401    2.3030   -4.7704 C.3       1 <0>        -0.2142
      2 C2         -4.1151    2.1878   -4.2256 C.3       1 <0>        -0.0098
      3 O1         -4.1441    1.5502   -2.9470 O.3       1 <0>        -0.2501
      4 C3         -2.9547    1.2818   -2.3693 C.2       1 <0>         0.3591
      5 O2         -1.9251    1.6716   -2.8871 O.2       1 <0>        -0.3348
      6 C4         -2.9048    0.5461   -1.1599 C.2       1 <0>        -0.1898
      7 C5         -3.0214   -0.7892   -1.1914 C.2       1 <0>         0.1002
      8 O3         -2.9796   -1.5362   -0.0789 O.3       1 <0>        -0.1378
      9 C6         -3.1928   -0.9620    1.1177 C.2       1 <0>         0.2726
     10 C7         -3.0842    0.3785    1.2948 C.2       1 <0>        -0.2472
     11 C8         -2.7224    1.2707    0.1421 C.3       1 <0>         0.0973
     12 C9         -1.3026    1.7603    0.2798 C.ar      1 <0>        -0.1232
     13 C10        -0.0861    1.1168    0.3229 C.ar      1 <0>        -0.0571
     14 C11         1.0795    1.8509    0.4554 C.ar      1 <0>        -0.1535
     15 C12         1.0173    3.2294    0.5492 C.ar      1 <0>        -0.0900
     16 C13        -0.2001    3.8767    0.5106 C.ar      1 <0>        -0.1515
     17 C14        -1.3782    3.1447    0.3771 C.ar      1 <0>         0.0755
     18 N1         -2.7090    3.5610    0.3132 N.am      1 <0>        -0.2703
     19 C15        -3.5583    2.5282    0.1677 C.2       1 <0>         0.3254
     20 O4         -4.7664    2.5936    0.0830 O.2       1 <0>        -0.2992
     21 C16        -3.1309    4.9622    0.3820 C.3       1 <0>         0.1095
     22 C17        -3.2762    5.4983   -0.9812 C.1       1 <0>        -0.1973
     23 C18        -3.3921    5.9259   -2.0684 C.1       1 <0>        -0.1763
     24 C19        -3.3154    0.9465    2.5889 C.1       1 <0>        -0.0618
     25 N2         -3.4989    1.3970    3.6154 N.1       1 <0>        -0.0647
     26 N3         -3.5292   -1.7526    2.1883 N.pl3     1 <0>        -0.3805
     27 C20        -3.2050   -1.4732   -2.5217 C.3       1 <0>        -0.1734
     28 H1         -5.5108    2.7089   -5.7816 H         1 <0>         0.0864
     29 H2         -6.0032    1.3164   -4.7882 H         1 <0>         0.0843
     30 H3         -6.1217    2.9658   -4.1296 H         1 <0>         0.0930
     31 H4         -3.6828    3.1834   -4.1254 H         1 <0>         0.0907
     32 H5         -3.5100    1.5965   -4.9128 H         1 <0>         0.0797
     33 H6         -0.0412    0.0403    0.2489 H         1 <0>         0.1318
     34 H7          2.0352    1.3488    0.4850 H         1 <0>         0.1334
     35 H8          1.9270    3.8022    0.6530 H         1 <0>         0.1333
     36 H9         -0.2403    4.9535    0.5844 H         1 <0>         0.1324
     37 H10        -4.0864    5.0288    0.9024 H         1 <0>         0.1285
     38 H11        -2.3818    5.5411    0.9221 H         1 <0>         0.1111
     39 H12        -3.4958    6.3083   -3.0408 H         1 <0>         0.2170
     40 H13        -3.6103   -2.7127    2.0757 H         1 <0>         0.2313
     41 H14        -3.6858   -1.3513    3.0574 H         1 <0>         0.2612
     42 H15        -2.2321   -1.7631   -2.9185 H         1 <0>         0.1089
     43 H16        -3.8235   -2.3612   -2.3913 H         1 <0>         0.1026
     44 H17        -3.6922   -0.7900   -3.2173 H         1 <0>         0.1173
@<TRIPOS>BOND
     1    1    2 1
     2    1   28 1
     3    1   29 1
     4    1   30 1
     5    2    3 1
     6    2   31 1
     7    2   32 1
     8    3    4 1
     9    4    5 2
    10    4    6 1
    11    6   11 1
    12    6    7 2
    13    7    8 1
    14    7   27 1
    15    8    9 1
    16    9   10 2
    17    9   26 1
    18   10   11 1
    19   10   24 1
    20   11   19 1
    21   11   12 1
    22   12   17 ar
    23   12   13 ar
    24   13   14 ar
    25   13   33 1
    26   14   15 ar
    27   14   34 1
    28   15   16 ar
    29   15   35 1
    30   16   17 ar
    31   16   36 1
    32   17   18 1
    33   18   19 am
    34   18   21 1
    35   19   20 2
    36   21   22 1
    37   21   37 1
    38   21   38 1
    39   22   23 3
    40   23   39 1
    41   24   25 3
    42   26   40 1
    43   26   41 1
    44   27   42 1
    45   27   43 1
    46   27   44 1
@<TRIPOS>MOLECULE
ZINC02224268
   38    40     0     0     0
SMALL
USER_CHARGES

@<TRIPOS>ATOM
      1 C1          2.5045    1.0700    0.0379 C.3       1 <0>        -0.1700
      2 C2          1.1861    1.8001    0.0437 C.2       1 <0>         0.0750
      3 C3         -0.0113    1.0758    0.0457 C.2       1 <0>        -0.2637
      4 C4         -1.1927    1.7469    0.0447 C.2       1 <0>         0.1047
      5 N1         -1.1796    3.1053    0.0531 N.pl3     1 <0>        -0.0975
      6 C5          0.0071    3.7829    0.0510 C.2       1 <0>         0.1172
      7 N2          1.1659    3.1141    0.0463 N.2       1 <0>        -0.1559
      8 N3         -0.2774    5.0809    0.0539 N.2       1 <0>        -0.2465
      9 C6         -1.5977    5.2512    0.0578 C.2       1 <0>        -0.1517
     10 N4         -2.1914    4.0745    0.0574 N.2       1 <0>        -0.1221
     11 S1         -2.4232    6.8078    0.0632 S.3       1 <0>         0.3632
     12 C7         -1.0739    8.0202    0.0613 C.3       1 <0>        -0.3217
     13 C8         -1.6498    9.4128    0.0656 C.2       1 <0>         0.3194
     14 O1         -2.8522    9.5718    0.0696 O.2       1 <0>        -0.3414
     15 N5         -0.8287   10.4816    0.0651 N.am      1 <0>        -0.3215
     16 C9         -1.3613   11.7741   -0.0287 C.ar      1 <0>         0.0485
     17 C10        -0.6726   12.7605   -0.7218 C.ar      1 <0>        -0.1458
     18 C11        -1.2006   14.0328   -0.8183 C.ar      1 <0>        -0.1382
     19 C12        -2.4134   14.3285   -0.2132 C.ar      1 <0>         0.0562
     20 C13        -3.0995   13.3448    0.4840 C.ar      1 <0>        -0.1371
     21 C14        -2.5753   12.0706    0.5763 C.ar      1 <0>        -0.1124
     22 O2         -2.9300   15.5830   -0.3038 O.3       1 <0>        -0.2904
     23 C15        -2.4988    0.9951    0.0400 C.3       1 <0>        -0.1850
     24 H1          2.8192    0.8964   -0.9911 H         1 <0>         0.1049
     25 H2          3.2551    1.6714    0.5508 H         1 <0>         0.1113
     26 H3          2.3928    0.1143    0.5499 H         1 <0>         0.0911
     27 H4          0.0035   -0.0041    0.0436 H         1 <0>         0.1624
     28 H5         -0.4575    7.8792    0.9491 H         1 <0>         0.1356
     29 H6         -0.4629    7.8824   -0.8308 H         1 <0>         0.1381
     30 H7          0.1310   10.3560    0.1296 H         1 <0>         0.2353
     31 H8          0.2739   12.5317   -1.1889 H         1 <0>         0.1325
     32 H9         -0.6673   14.7989   -1.3615 H         1 <0>         0.1416
     33 H10        -4.0436   13.5757    0.9548 H         1 <0>         0.1452
     34 H11        -3.1098   11.3048    1.1188 H         1 <0>         0.1687
     35 H12        -2.6548   16.1742    0.4102 H         1 <0>         0.2245
     36 H13        -2.8160    0.8115    1.0666 H         1 <0>         0.1093
     37 H14        -3.2565    1.5865   -0.4741 H         1 <0>         0.1190
     38 H15        -2.3686    0.0438   -0.4758 H         1 <0>         0.0976
@<TRIPOS>BOND
     1    1    2 1
     2    1   24 1
     3    1   25 1
     4    1   26 1
     5    2    7 2
     6    2    3 1
     7    3    4 2
     8    3   27 1
     9    4    5 1
    10    4   23 1
    11    5   10 1
    12    5    6 1
    13    6    7 1
    14    6    8 2
    15    8    9 1
    16    9   10 2
    17    9   11 1
    18   11   12 1
    19   12   13 1
    20   12   28 1
    21   12   29 1
    22   13   14 2
    23   13   15 am
    24   15   16 1
    25   15   30 1
    26   16   21 ar
    27   16   17 ar
    28   17   18 ar
    29   17   31 1
    30   18   19 ar
    31   18   32 1
    32   19   20 ar
    33   19   22 1
    34   20   21 ar
    35   20   33 1
    36   21   34 1
    37   22   35 1
    38   23   36 1
    39   23   37 1
    40   23   38 1
@<TRIPOS>MOLECULE
ZINC02228301
   38    40     0     0     0
SMALL
USER_CHARGES

@<TRIPOS>ATOM
      1 C1         -0.0127    1.0858    0.0080 C.3       1 <0>        -0.1810
      2 C2         -0.7181    1.5718    1.2479 C.2       1 <0>         0.0492
      3 C3         -2.0852    1.7972    1.2532 C.2       1 <0>        -0.2928
      4 C4         -2.6672    2.2433    2.4463 C.2       1 <0>        -0.0653
      5 S1         -1.3119    2.3515    3.5214 S.3       1 <0>         0.4396
      6 C5         -0.0293    1.8115    2.4071 C.2       1 <0>        -0.3784
      7 C6          1.4010    1.6625    2.6660 C.2       1 <0>         0.4016
      8 O1          2.1427    1.2785    1.7811 O.2       1 <0>        -0.3610
      9 O2          1.8995    1.9508    3.8864 O.3       1 <0>        -0.2628
     10 C7          3.3068    1.7825    4.0687 C.3       1 <0>        -0.0512
     11 N1         -3.9878    2.5309    2.7006 N.pl3     1 <0>        -0.3066
     12 C8         -4.3935    2.9961    4.0291 C.3       1 <0>         0.2062
     13 H1         -3.5478    3.4594    4.5372 H         1 <0>         0.1489
     14 C9         -5.5278    3.9824    3.9079 C.ar      1 <0>        -0.1311
     15 C10        -5.6559    5.2048    3.2925 C.ar      1 <0>        -0.0934
     16 C11        -6.8576    5.8900    3.3578 C.ar      1 <0>        -0.0996
     17 C12        -7.9323    5.3477    4.0406 C.ar      1 <0>        -0.1232
     18 C13        -7.8158    4.1216    4.6619 C.ar      1 <0>        -0.0477
     19 C14        -6.6074    3.4249    4.6006 C.ar      1 <0>        -0.1638
     20 C15        -6.1773    2.1252    5.1477 C.2       1 <0>         0.3570
     21 O3         -6.8779    1.3816    5.8047 O.2       1 <0>        -0.2702
     22 O4         -4.8985    1.8821    4.8152 O.3       1 <0>        -0.2206
     23 C16        -2.8965    1.5713    0.0509 C.2       1 <0>         0.3653
     24 O5         -3.3961    0.4800   -0.1497 O.2       1 <0>        -0.3515
     25 N2         -3.0880    2.5725   -0.8307 N.am      1 <0>        -0.4303
     26 H2          0.0021   -0.0041    0.0020 H         1 <0>         0.1109
     27 H3          1.0099    1.4631    0.0003 H         1 <0>         0.1200
     28 H4         -0.5399    1.4469   -0.8751 H         1 <0>         0.0798
     29 H5          3.5749    2.0478    5.0914 H         1 <0>         0.1039
     30 H6          3.5757    0.7431    3.8806 H         1 <0>         0.0824
     31 H7          3.8430    2.4282    3.3733 H         1 <0>         0.0791
     32 H8         -4.6506    2.4256    2.0002 H         1 <0>         0.2568
     33 H9         -4.8193    5.6307    2.7587 H         1 <0>         0.1405
     34 H10        -6.9564    6.8507    2.8745 H         1 <0>         0.1432
     35 H11        -8.8667    5.8873    4.0876 H         1 <0>         0.1450
     36 H12        -8.6568    3.7018    5.1938 H         1 <0>         0.1552
     37 H13        -2.6898    3.4424   -0.6708 H         1 <0>         0.2174
     38 H14        -3.6242    2.4232   -1.6252 H         1 <0>         0.2284
@<TRIPOS>BOND
     1    1    2 1
     2    1   26 1
     3    1   27 1
     4    1   28 1
     5    2    6 2
     6    2    3 1
     7    3    4 2
     8    3   23 1
     9    4    5 1
    10    4   11 1
    11    5    6 1
    12    6    7 1
    13    7    8 2
    14    7    9 1
    15    9   10 1
    16   10   29 1
    17   10   30 1
    18   10   31 1
    19   11   12 1
    20   11   32 1
    21   12   13 1
    22   12   22 1
    23   12   14 1
    24   14   19 ar
    25   14   15 ar
    26   15   16 ar
    27   15   33 1
    28   16   17 ar
    29   16   34 1
    30   17   18 ar
    31   17   35 1
    32   18   19 ar
    33   18   36 1
    34   19   20 1
    35   20   21 2
    36   20   22 1
    37   23   24 2
    38   23   25 am
    39   25   37 1
    40   25   38 1
@<TRIPOS>MOLECULE
ZINC02229252
   48    51     0     0     0
SMALL
USER_CHARGES

@<TRIPOS>ATOM
      1 C1         -5.2707   -1.7102   -3.2271 C.3       1 <0>        -0.1734
      2 C2         -4.7635   -0.6224   -2.3158 C.ar      1 <0>        -0.0834
      3 C3         -5.5131   -0.2377   -1.2177 C.ar      1 <0>        -0.1076
      4 C4         -5.0573    0.7591   -0.3760 C.ar      1 <0>        -0.0981
      5 C5         -3.8418    1.3759   -0.6246 C.ar      1 <0>         0.0903
      6 C6         -3.0839    0.9937   -1.7371 C.ar      1 <0>        -0.0536
      7 C7         -3.5539   -0.0133   -2.5796 C.ar      1 <0>        -0.1081
      8 C8         -1.7877    1.6504   -2.0148 C.2       1 <0>        -0.0285
      9 C9         -0.6712    1.6003   -1.2429 C.2       1 <0>        -0.1868
     10 C10         0.3011    2.3757   -1.9144 C.2       1 <0>        -0.1744
     11 N1         -0.2648    2.8327   -3.0136 N.2       1 <0>        -0.0145
     12 N2         -1.4812    2.4253   -3.0967 N.pl3     1 <0>        -0.1119
     13 H1         -2.1099    2.6435   -3.8431 H         1 <0>         0.2911
     14 C11         1.5356    2.3498   -1.1092 C.2       1 <0>         0.3978
     15 O1          2.5682    2.9193   -1.4046 O.2       1 <0>        -0.3204
     16 N3          1.3586    1.6084   -0.0023 N.am      1 <0>        -0.3434
     17 C12        -0.0127    1.0858    0.0080 C.3       1 <0>         0.1527
     18 H2          0.0021   -0.0041    0.0020 H         1 <0>         0.1075
     19 C13        -0.7480    1.5862    1.2246 C.ar      1 <0>        -0.0841
     20 C14        -0.5348    2.8738    1.6800 C.ar      1 <0>        -0.1060
     21 C15        -1.2122    3.3341    2.7936 C.ar      1 <0>        -0.1323
     22 C16        -2.0963    2.5039    3.4569 C.ar      1 <0>        -0.1251
     23 C17        -2.3060    1.2147    3.0043 C.ar      1 <0>        -0.1244
     24 C18        -1.6315    0.7557    1.8884 C.ar      1 <0>        -0.1030
     25 C19         2.3712    1.3612    1.0272 C.3       1 <0>         0.0248
     26 C20         3.1650    0.1030    0.6701 C.3       1 <0>        -0.0257
     27 O2          3.8986    0.3287   -0.5352 O.3       1 <0>        -0.3327
     28 O3         -3.3900    2.3516    0.2056 O.3       1 <0>        -0.2715
     29 C21        -5.8801    1.1709    0.8176 C.3       1 <0>        -0.1669
     30 H3         -4.9131   -2.6770   -2.8729 H         1 <0>         0.0897
     31 H4         -6.3607   -1.7042   -3.2285 H         1 <0>         0.0832
     32 H5         -4.9052   -1.5361   -4.2392 H         1 <0>         0.0826
     33 H6         -6.4592   -0.7188   -1.0179 H         1 <0>         0.1365
     34 H7         -2.9716   -0.3164   -3.4372 H         1 <0>         0.1387
     35 H8          0.1588    3.5212    1.1640 H         1 <0>         0.1386
     36 H9         -1.0481    4.3412    3.1475 H         1 <0>         0.1277
     37 H10        -2.6231    2.8624    4.3290 H         1 <0>         0.1247
     38 H11        -2.9965    0.5659    3.5227 H         1 <0>         0.1249
     39 H12        -1.7950   -0.2517    1.5350 H         1 <0>         0.1268
     40 H13         3.0478    2.2140    1.0835 H         1 <0>         0.1227
     41 H14         1.8824    1.2210    1.9913 H         1 <0>         0.1012
     42 H15         3.8576   -0.1313    1.4785 H         1 <0>         0.0622
     43 H16         2.4784   -0.7313    0.5267 H         1 <0>         0.0593
     44 H17         4.4264   -0.4290   -0.8223 H         1 <0>         0.2069
     45 H18        -3.6719    3.2422   -0.0441 H         1 <0>         0.2271
     46 H19        -5.5983    0.5659    1.6793 H         1 <0>         0.0934
     47 H20        -5.6996    2.2231    1.0377 H         1 <0>         0.0868
     48 H21        -6.9374    1.0216    0.5989 H         1 <0>         0.0788
@<TRIPOS>BOND
     1    1    2 1
     2    1   30 1
     3    1   31 1
     4    1   32 1
     5    2    7 ar
     6    2    3 ar
     7    3    4 ar
     8    3   33 1
     9    4    5 ar
    10    4   29 1
    11    5    6 ar
    12    5   28 1
    13    6    7 ar
    14    6    8 1
    15    7   34 1
    16    8   12 1
    17    8    9 2
    18    9   17 1
    19    9   10 1
    20   10   11 2
    21   10   14 1
    22   11   12 1
    23   12   13 1
    24   14   15 2
    25   14   16 am
    26   16   17 1
    27   16   25 1
    28   17   18 1
    29   17   19 1
    30   19   24 ar
    31   19   20 ar
    32   20   21 ar
    33   20   35 1
    34   21   22 ar
    35   21   36 1
    36   22   23 ar
    37   22   37 1
    38   23   24 ar
    39   23   38 1
    40   24   39 1
    41   25   26 1
    42   25   40 1
    43   25   41 1
    44   26   27 1
    45   26   42 1
    46   26   43 1
    47   27   44 1
    48   28   45 1
    49   29   46 1
    50   29   47 1
    51   29   48 1
@<TRIPOS>MOLECULE
ZINC02229252
   48    51     0     0     0
SMALL
USER_CHARGES

@<TRIPOS>ATOM
      1 C1         -5.2707   -1.7102   -3.2271 C.3       1 <0>        -0.1723
      2 C2         -4.7635   -0.6224   -2.3158 C.ar      1 <0>        -0.0864
      3 C3         -5.5131   -0.2377   -1.2177 C.ar      1 <0>        -0.1117
      4 C4         -5.0573    0.7591   -0.3760 C.ar      1 <0>        -0.1005
      5 C5         -3.8418    1.3759   -0.6246 C.ar      1 <0>         0.0836
      6 C6         -3.0839    0.9937   -1.7371 C.ar      1 <0>        -0.0233
      7 C7         -3.5539   -0.0133   -2.5796 C.ar      1 <0>        -0.0958
      8 C8         -1.7877    1.6504   -2.0148 C.2       1 <0>        -0.0260
      9 C9         -0.6710    1.5998   -1.2432 C.2       1 <0>        -0.1685
     10 C10         0.3014    2.3749   -1.9149 C.2       1 <0>        -0.2063
     11 N1         -0.2648    2.8327   -3.0136 N.pl3     1 <0>        -0.0052
     12 N2         -1.4812    2.4253   -3.0967 N.2       1 <0>        -0.1038
     13 H1          0.1885    3.4154   -3.6882 H         1 <0>         0.2930
     14 C11         1.5361    2.3485   -1.1100 C.2       1 <0>         0.3893
     15 O1          2.5688    2.9177   -1.4056 O.2       1 <0>        -0.3417
     16 N3          1.3591    1.6071   -0.0031 N.am      1 <0>        -0.3347
     17 C12        -0.0124    1.0850    0.0075 C.3       1 <0>         0.1438
     18 H2          0.0020   -0.0050    0.0014 H         1 <0>         0.1110
     19 C13        -0.7472    1.5855    1.2243 C.ar      1 <0>        -0.0830
     20 C14        -0.5334    2.8730    1.6798 C.ar      1 <0>        -0.1073
     21 C15        -1.2104    3.3334    2.7936 C.ar      1 <0>        -0.1318
     22 C16        -2.0946    2.5035    3.4571 C.ar      1 <0>        -0.1235
     23 C17        -2.3049    1.2144    3.0044 C.ar      1 <0>        -0.1222
     24 C18        -1.6308    0.7552    1.8883 C.ar      1 <0>        -0.0997
     25 C19         2.3719    1.3594    1.0261 C.3       1 <0>         0.0226
     26 C20         3.1651    0.1009    0.6687 C.3       1 <0>        -0.0256
     27 O2          3.8985    0.3265   -0.5368 O.3       1 <0>        -0.3354
     28 O3         -3.3900    2.3516    0.2056 O.3       1 <0>        -0.2774
     29 C21        -5.8801    1.1709    0.8176 C.3       1 <0>        -0.1655
     30 H3         -4.9131   -2.6770   -2.8729 H         1 <0>         0.0854
     31 H4         -6.3607   -1.7042   -3.2285 H         1 <0>         0.0814
     32 H5         -4.9052   -1.5361   -4.2392 H         1 <0>         0.0836
     33 H6         -6.4592   -0.7188   -1.0179 H         1 <0>         0.1333
     34 H7         -2.9716   -0.3164   -3.4372 H         1 <0>         0.1419
     35 H8          0.1603    3.5202    1.1637 H         1 <0>         0.1346
     36 H9         -1.0458    4.3404    3.1476 H         1 <0>         0.1271
     37 H10        -2.6210    2.8621    4.3293 H         1 <0>         0.1252
     38 H11        -2.9955    0.5658    3.5229 H         1 <0>         0.1261
     39 H12        -1.7948   -0.2521    1.5348 H         1 <0>         0.1281
     40 H13         3.0488    2.2119    1.0823 H         1 <0>         0.1223
     41 H14         1.8833    1.2193    1.9903 H         1 <0>         0.1041
     42 H15         3.8579   -0.1337    1.4769 H         1 <0>         0.0639
     43 H16         2.4782   -0.7331    0.5254 H         1 <0>         0.0610
     44 H17         4.4260   -0.4314   -0.8241 H         1 <0>         0.2077
     45 H18        -3.6719    3.2422   -0.0441 H         1 <0>         0.2268
     46 H19        -5.5983    0.5659    1.6793 H         1 <0>         0.0894
     47 H20        -5.6996    2.2231    1.0377 H         1 <0>         0.0852
     48 H21        -6.9374    1.0216    0.5989 H         1 <0>         0.0775
@<TRIPOS>BOND
     1    1    2 1
     2    1   30 1
     3    1   31 1
     4    1   32 1
     5    2    7 ar
     6    2    3 ar
     7    3    4 ar
     8    3   33 1
     9    4    5 ar
    10    4   29 1
    11    5    6 ar
    12    5   28 1
    13    6    7 ar
    14    6    8 1
    15    7   34 1
    16    8    9 1
    17    8   12 2
    18    9   17 1
    19    9   10 2
    20   10   14 1
    21   10   11 1
    22   11   13 1
    23   11   12 1
    24   14   15 2
    25   14   16 am
    26   16   17 1
    27   16   25 1
    28   17   18 1
    29   17   19 1
    30   19   24 ar
    31   19   20 ar
    32   20   21 ar
    33   20   35 1
    34   21   22 ar
    35   21   36 1
    36   22   23 ar
    37   22   37 1
    38   23   24 ar
    39   23   38 1
    40   24   39 1
    41   25   26 1
    42   25   40 1
    43   25   41 1
    44   26   27 1
    45   26   42 1
    46   26   43 1
    47   27   44 1
    48   28   45 1
    49   29   46 1
    50   29   47 1
    51   29   48 1
@<TRIPOS>MOLECULE
ZINC02229254
   48    51     0     0     0
SMALL
USER_CHARGES

@<TRIPOS>ATOM
      1 C1          0.6236   -0.6734    1.1208 C.3       1 <0>        -0.1736
      2 C2          0.3669    0.8097    1.0477 C.ar      1 <0>        -0.0802
      3 C3         -0.9146    1.2976    1.2351 C.ar      1 <0>        -0.1078
      4 C4         -1.1598    2.6565    1.1758 C.ar      1 <0>        -0.0959
      5 C5         -0.1232    3.5384    0.9165 C.ar      1 <0>         0.0855
      6 C6          1.1729    3.0483    0.7208 C.ar      1 <0>        -0.0475
      7 C7          1.4094    1.6757    0.7887 C.ar      1 <0>        -0.1045
      8 C8          2.2865    3.9817    0.4429 C.2       1 <0>        -0.0299
      9 C9          2.7815    4.9270    1.2833 C.2       1 <0>        -0.1790
     10 C10         3.8297    5.5625    0.5799 C.2       1 <0>        -0.1812
     11 N1          3.9041    4.9844   -0.6024 N.2       1 <0>        -0.0148
     12 N2          3.0206    4.0563   -0.7062 N.pl3     1 <0>        -0.1116
     13 H1          2.8902    3.4751   -1.5094 H         1 <0>         0.2910
     14 C11         4.3990    6.6012    1.4573 C.2       1 <0>         0.3936
     15 O1          5.3208    7.3344    1.1563 O.2       1 <0>        -0.3490
     16 N3          3.7557    6.6233    2.6371 N.am      1 <0>        -0.3349
     17 C12         2.7077    5.5960    2.6287 C.3       1 <0>         0.1518
     18 H2          1.7293    6.0571    2.7642 H         1 <0>         0.1375
     19 C13         2.9607    4.5897    3.7215 C.ar      1 <0>        -0.0916
     20 C14         4.2406    4.1163    3.9423 C.ar      1 <0>        -0.1100
     21 C15         4.4735    3.1965    4.9476 C.ar      1 <0>        -0.1330
     22 C16         3.4250    2.7433    5.7262 C.ar      1 <0>        -0.1266
     23 C17         2.1443    3.2128    5.5020 C.ar      1 <0>        -0.1320
     24 C18         1.9121    4.1358    4.4995 C.ar      1 <0>        -0.1088
     25 C19         4.0521    7.5273    3.7511 C.3       1 <0>         0.0260
     26 C20         3.3172    8.8529    3.5417 C.3       1 <0>        -0.0280
     27 O2          1.9071    8.6319    3.6112 O.3       1 <0>        -0.3563
     28 O3         -0.3641    4.8737    0.8520 O.3       1 <0>        -0.2825
     29 C21        -2.5574    3.1790    1.3872 C.3       1 <0>        -0.1742
     30 H3          0.8684   -0.9497    2.1464 H         1 <0>         0.0914
     31 H4         -0.2685   -1.2127    0.8024 H         1 <0>         0.0824
     32 H5          1.4566   -0.9307    0.4666 H         1 <0>         0.0822
     33 H6         -1.7265    0.6133    1.4327 H         1 <0>         0.1366
     34 H7          2.4074    1.2909    0.6390 H         1 <0>         0.1396
     35 H8          5.0591    4.4676    3.3315 H         1 <0>         0.1385
     36 H9          5.4741    2.8299    5.1230 H         1 <0>         0.1293
     37 H10         3.6065    2.0227    6.5099 H         1 <0>         0.1268
     38 H11         1.3251    2.8587    6.1103 H         1 <0>         0.1288
     39 H12         0.9115    4.5026    4.3244 H         1 <0>         0.1374
     40 H13         3.7226    7.0729    4.6854 H         1 <0>         0.1086
     41 H14         5.1258    7.7101    3.7949 H         1 <0>         0.1143
     42 H15         3.6130    9.5588    4.3178 H         1 <0>         0.0640
     43 H16         3.5735    9.2598    2.5635 H         1 <0>         0.0810
     44 H17         1.3772    9.4311    3.4869 H         1 <0>         0.2109
     45 H18        -0.5913    5.1901   -0.0331 H         1 <0>         0.2298
     46 H19        -3.0773    3.2237    0.4302 H         1 <0>         0.0825
     47 H20        -3.0957    2.5139    2.0624 H         1 <0>         0.0840
     48 H21        -2.5101    4.1775    1.8219 H         1 <0>         0.0990
@<TRIPOS>BOND
     1    1    2 1
     2    1   30 1
     3    1   31 1
     4    1   32 1
     5    2    7 ar
     6    2    3 ar
     7    3    4 ar
     8    3   33 1
     9    4    5 ar
    10    4   29 1
    11    5    6 ar
    12    5   28 1
    13    6    7 ar
    14    6    8 1
    15    7   34 1
    16    8   12 1
    17    8    9 2
    18    9   17 1
    19    9   10 1
    20   10   11 2
    21   10   14 1
    22   11   12 1
    23   12   13 1
    24   14   15 2
    25   14   16 am
    26   16   17 1
    27   16   25 1
    28   17   18 1
    29   17   19 1
    30   19   24 ar
    31   19   20 ar
    32   20   21 ar
    33   20   35 1
    34   21   22 ar
    35   21   36 1
    36   22   23 ar
    37   22   37 1
    38   23   24 ar
    39   23   38 1
    40   24   39 1
    41   25   26 1
    42   25   40 1
    43   25   41 1
    44   26   27 1
    45   26   42 1
    46   26   43 1
    47   27   44 1
    48   28   45 1
    49   29   46 1
    50   29   47 1
    51   29   48 1
@<TRIPOS>MOLECULE
ZINC02229254
   48    51     0     0     0
SMALL
USER_CHARGES

@<TRIPOS>ATOM
      1 C1          0.6245   -0.6738    1.1218 C.3       1 <0>        -0.1725
      2 C2          0.3676    0.8093    1.0483 C.ar      1 <0>        -0.0834
      3 C3         -0.9140    1.2970    1.2354 C.ar      1 <0>        -0.1118
      4 C4         -1.1594    2.6558    1.1758 C.ar      1 <0>        -0.0983
      5 C5         -0.1229    3.5378    0.9164 C.ar      1 <0>         0.0790
      6 C6          1.1733    3.0479    0.7210 C.ar      1 <0>        -0.0179
      7 C7          1.4100    1.6754    0.7893 C.ar      1 <0>        -0.0921
      8 C8          2.2868    3.9814    0.4431 C.2       1 <0>        -0.0273
      9 C9          2.7775    4.9311    1.2810 C.2       1 <0>        -0.1583
     10 C10         3.8234    5.5689    0.5763 C.2       1 <0>        -0.2149
     11 N1          3.9044    4.9841   -0.6022 N.pl3     1 <0>        -0.0062
     12 N2          3.0210    4.0559   -0.7060 N.2       1 <0>        -0.1021
     13 H1          4.5610    5.2284   -1.3158 H         1 <0>         0.2919
     14 C11         4.3884    6.6121    1.4512 C.2       1 <0>         0.3842
     15 O1          5.3073    7.3481    1.1486 O.2       1 <0>        -0.3704
     16 N3          3.7447    6.6346    2.6308 N.am      1 <0>        -0.3256
     17 C12         2.7007    5.6032    2.6247 C.3       1 <0>         0.1426
     18 H2          1.7205    6.0607    2.7588 H         1 <0>         0.1418
     19 C13         2.9574    4.6006    3.7201 C.ar      1 <0>        -0.0906
     20 C14         4.2391    4.1328    3.9424 C.ar      1 <0>        -0.1110
     21 C15         4.4754    3.2165    4.9501 C.ar      1 <0>        -0.1326
     22 C16         3.4285    2.7611    5.7296 C.ar      1 <0>        -0.1252
     23 C17         2.1460    3.2250    5.5039 C.ar      1 <0>        -0.1304
     24 C18         1.9104    4.1446    4.4990 C.ar      1 <0>        -0.1062
     25 C19         4.0372    7.5426    3.7426 C.3       1 <0>         0.0236
     26 C20         3.2971    8.8647    3.5296 C.3       1 <0>        -0.0273
     27 O2          1.8879    8.6383    3.5994 O.3       1 <0>        -0.3554
     28 O3         -0.3640    4.8731    0.8516 O.3       1 <0>        -0.2882
     29 C21        -2.5571    3.1782    1.3868 C.3       1 <0>        -0.1728
     30 H3          0.8692   -0.9498    2.1475 H         1 <0>         0.0871
     31 H4         -0.2674   -1.2133    0.8034 H         1 <0>         0.0806
     32 H5          1.4577   -0.9311    0.4678 H         1 <0>         0.0833
     33 H6         -1.7258    0.6126    1.4331 H         1 <0>         0.1334
     34 H7          2.4081    1.2907    0.6398 H         1 <0>         0.1429
     35 H8          5.0564    4.4858    3.3310 H         1 <0>         0.1347
     36 H9          5.4774    2.8543    5.1267 H         1 <0>         0.1290
     37 H10         3.6126    2.0432    6.5152 H         1 <0>         0.1275
     38 H11         1.3281    2.8692    6.1129 H         1 <0>         0.1300
     39 H12         0.9084    4.5070    4.3227 H         1 <0>         0.1391
     40 H13         3.7093    7.0892    4.6779 H         1 <0>         0.1113
     41 H14         5.1102    7.7297    3.7862 H         1 <0>         0.1139
     42 H15         3.5899    9.5738    4.3040 H         1 <0>         0.0653
     43 H16         3.5521    9.2702    2.5505 H         1 <0>         0.0791
     44 H17         1.3549    9.4351    3.4729 H         1 <0>         0.2120
     45 H18        -0.5911    5.1892   -0.0337 H         1 <0>         0.2294
     46 H19        -3.0769    3.2225    0.4298 H         1 <0>         0.0816
     47 H20        -3.0954    2.5131    2.0621 H         1 <0>         0.0814
     48 H21        -2.5101    4.1768    1.8213 H         1 <0>         0.0959
@<TRIPOS>BOND
     1    1    2 1
     2    1   30 1
     3    1   31 1
     4    1   32 1
     5    2    7 ar
     6    2    3 ar
     7    3    4 ar
     8    3   33 1
     9    4    5 ar
    10    4   29 1
    11    5    6 ar
    12    5   28 1
    13    6    7 ar
    14    6    8 1
    15    7   34 1
    16    8    9 1
    17    8   12 2
    18    9   17 1
    19    9   10 2
    20   10   14 1
    21   10   11 1
    22   11   13 1
    23   11   12 1
    24   14   15 2
    25   14   16 am
    26   16   17 1
    27   16   25 1
    28   17   18 1
    29   17   19 1
    30   19   24 ar
    31   19   20 ar
    32   20   21 ar
    33   20   35 1
    34   21   22 ar
    35   21   36 1
    36   22   23 ar
    37   22   37 1
    38   23   24 ar
    39   23   38 1
    40   24   39 1
    41   25   26 1
    42   25   40 1
    43   25   41 1
    44   26   27 1
    45   26   42 1
    46   26   43 1
    47   27   44 1
    48   28   45 1
    49   29   46 1
    50   29   47 1
    51   29   48 1
@<TRIPOS>MOLECULE
ZINC02230028
   46    49     0     0     0
SMALL
USER_CHARGES

@<TRIPOS>ATOM
      1 C1          7.1002    3.6603    0.3062 C.3       1 <0>        -0.1719
      2 C2          5.7776    2.9380    0.3152 C.ar      1 <0>        -0.1061
      3 C3          5.7424    1.5648    0.5137 C.ar      1 <0>        -0.0752
      4 C4          4.5446    0.8840    0.5253 C.ar      1 <0>        -0.0908
      5 C5          3.3517    1.5764    0.3361 C.ar      1 <0>         0.1133
      6 C6          3.3975    2.9668    0.1358 C.ar      1 <0>        -0.1993
      7 C7          4.6185    3.6389    0.1272 C.ar      1 <0>        -0.0454
      8 C8          2.1220    3.6827   -0.0630 C.2       1 <0>         0.3274
      9 O1          2.0858    4.8873   -0.2417 O.2       1 <0>        -0.2903
     10 C9          0.9011    2.8721   -0.0331 C.2       1 <0>        -0.2644
     11 C10         0.9841    1.5344    0.1689 C.2       1 <0>         0.0576
     12 O2          2.1739    0.9267    0.3450 O.3       1 <0>        -0.0929
     13 C11        -0.3900    0.9732    0.1510 C.2       1 <0>         0.3615
     14 O3         -0.6632   -0.2008    0.3030 O.2       1 <0>        -0.3068
     15 N1         -1.2881    1.9501   -0.0635 N.am      1 <0>        -0.3338
     16 C12        -0.5570    3.2169   -0.1899 C.3       1 <0>         0.1264
     17 H1         -0.7359    3.6543   -1.1721 H         1 <0>         0.1219
     18 C13        -0.9823    4.1773    0.8907 C.ar      1 <0>        -0.0847
     19 C14        -1.1697    3.7238    2.1836 C.ar      1 <0>        -0.1212
     20 C15        -1.5544    4.6035    3.1783 C.ar      1 <0>        -0.1169
     21 C16        -1.7635    5.9363    2.8804 C.ar      1 <0>        -0.1464
     22 C17        -1.5817    6.3926    1.5831 C.ar      1 <0>         0.0710
     23 C18        -1.1901    5.5088    0.5878 C.ar      1 <0>        -0.1267
     24 O4         -1.7872    7.7031    1.2875 O.3       1 <0>        -0.2866
     25 C19        -2.7405    1.7809   -0.1526 C.3       1 <0>         0.0257
     26 C20        -3.1490    1.6455   -1.6209 C.3       1 <0>        -0.0257
     27 O5         -2.6026    0.4393   -2.1581 O.3       1 <0>        -0.3383
     28 C21         4.5257   -0.6071    0.7428 C.3       1 <0>        -0.1713
     29 H2          7.4933    3.6859   -0.7101 H         1 <0>         0.0885
     30 H3          6.9602    4.6791    0.6674 H         1 <0>         0.0870
     31 H4          7.8037    3.1383    0.9548 H         1 <0>         0.0824
     32 H5          6.6651    1.0233    0.6613 H         1 <0>         0.1420
     33 H6          4.6491    4.7074   -0.0274 H         1 <0>         0.1584
     34 H7         -1.0114    2.6814    2.4175 H         1 <0>         0.1373
     35 H8         -1.6962    4.2476    4.1880 H         1 <0>         0.1356
     36 H9         -2.0687    6.6222    3.6568 H         1 <0>         0.1408
     37 H10        -1.0475    5.8617   -0.4229 H         1 <0>         0.1466
     38 H11        -2.6941    7.9089    1.0225 H         1 <0>         0.2247
     39 H12        -3.0358    0.8834    0.3909 H         1 <0>         0.1274
     40 H13        -3.2349    2.6489    0.2835 H         1 <0>         0.1038
     41 H14        -4.2361    1.6162   -1.6943 H         1 <0>         0.0674
     42 H15        -2.7697    2.4984   -2.1837 H         1 <0>         0.0622
     43 H16        -2.8218    0.2881   -3.0877 H         1 <0>         0.2118
     44 H17         4.5956   -1.1154   -0.2188 H         1 <0>         0.0920
     45 H18         5.3715   -0.8938    1.3677 H         1 <0>         0.0817
     46 H19         3.5963   -0.8904    1.2369 H         1 <0>         0.1002
@<TRIPOS>BOND
     1    1    2 1
     2    1   29 1
     3    1   30 1
     4    1   31 1
     5    2    7 ar
     6    2    3 ar
     7    3    4 ar
     8    3   32 1
     9    4    5 ar
    10    4   28 1
    11    5   12 1
    12    5    6 ar
    13    6    7 ar
    14    6    8 1
    15    7   33 1
    16    8    9 2
    17    8   10 1
    18   10   16 1
    19   10   11 2
    20   11   12 1
    21   11   13 1
    22   13   14 2
    23   13   15 am
    24   15   16 1
    25   15   25 1
    26   16   17 1
    27   16   18 1
    28   18   23 ar
    29   18   19 ar
    30   19   20 ar
    31   19   34 1
    32   20   21 ar
    33   20   35 1
    34   21   22 ar
    35   21   36 1
    36   22   23 ar
    37   22   24 1
    38   23   37 1
    39   24   38 1
    40   25   26 1
    41   25   39 1
    42   25   40 1
    43   26   27 1
    44   26   41 1
    45   26   42 1
    46   27   43 1
    47   28   44 1
    48   28   45 1
    49   28   46 1
@<TRIPOS>MOLECULE
ZINC02230029
   46    49     0     0     0
SMALL
USER_CHARGES

@<TRIPOS>ATOM
      1 C1          1.1197    3.6067    0.0108 C.3       1 <0>        -0.1718
      2 C2          1.1658    2.1004    0.0022 C.ar      1 <0>        -0.1063
      3 C3         -0.0166    1.3736    0.0096 C.ar      1 <0>        -0.0749
      4 C4          0.0021   -0.0041    0.0020 C.ar      1 <0>        -0.0918
      5 C5          1.2185   -0.6809   -0.0133 C.ar      1 <0>         0.1141
      6 C6          2.4105    0.0637   -0.0208 C.ar      1 <0>        -0.1996
      7 C7          2.3724    1.4570   -0.0129 C.ar      1 <0>        -0.0448
      8 C8          3.6898   -0.6726   -0.0379 C.2       1 <0>         0.3265
      9 O1          4.7613   -0.0929   -0.0457 O.2       1 <0>        -0.2867
     10 C9          3.6065   -2.1360   -0.0454 C.2       1 <0>        -0.2548
     11 C10         2.3946   -2.7428   -0.0370 C.2       1 <0>         0.0484
     12 O2          1.2538   -2.0256   -0.0213 O.3       1 <0>        -0.0950
     13 C11         2.6076   -4.2118   -0.0479 C.2       1 <0>         0.3557
     14 O3          1.7211   -5.0426   -0.0441 O.2       1 <0>        -0.3322
     15 N1          3.9224   -4.4905   -0.0626 N.am      1 <0>        -0.3268
     16 C12         4.6546   -3.2180   -0.0622 C.3       1 <0>         0.1266
     17 H1          5.2657   -3.1362   -0.9610 H         1 <0>         0.1431
     18 C13         5.5226   -3.1190    1.1657 C.ar      1 <0>        -0.0803
     19 C14         5.0477   -3.5655    2.3853 C.ar      1 <0>        -0.1251
     20 C15         5.8415   -3.4761    3.5136 C.ar      1 <0>        -0.1185
     21 C16         7.1119   -2.9400    3.4252 C.ar      1 <0>        -0.1475
     22 C17         7.5907   -2.4917    2.2029 C.ar      1 <0>         0.0707
     23 C18         6.7939   -2.5875    1.0710 C.ar      1 <0>        -0.1205
     24 O4          8.8397   -1.9636    2.1134 O.3       1 <0>        -0.2874
     25 C19         4.5196   -5.8282   -0.0765 C.3       1 <0>         0.0260
     26 C20         4.7127   -6.2855   -1.5237 C.3       1 <0>        -0.0276
     27 O5          5.6669   -5.4387   -2.1676 O.3       1 <0>        -0.3585
     28 C21        -1.2918   -0.7767    0.0098 C.3       1 <0>        -0.1711
     29 H2          1.1184    3.9643    1.0405 H         1 <0>         0.0891
     30 H3          1.9932    3.9999   -0.5093 H         1 <0>         0.0868
     31 H4          0.2141    3.9453   -0.4926 H         1 <0>         0.0820
     32 H5         -0.9628    1.8942    0.0169 H         1 <0>         0.1419
     33 H6          3.2908    2.0253   -0.0189 H         1 <0>         0.1588
     34 H7          4.0549   -3.9846    2.4566 H         1 <0>         0.1345
     35 H8          5.4683   -3.8252    4.4650 H         1 <0>         0.1339
     36 H9          7.7316   -2.8703    4.3069 H         1 <0>         0.1397
     37 H10         7.1660   -2.2430    0.1174 H         1 <0>         0.1503
     38 H11         9.5289   -2.6141    1.9214 H         1 <0>         0.2252
     39 H12         5.4857   -5.8001    0.4276 H         1 <0>         0.1123
     40 H13         3.8604   -6.5258    0.4401 H         1 <0>         0.1191
     41 H14         5.0737   -7.3139   -1.5347 H         1 <0>         0.0694
     42 H15         3.7613   -6.2287   -2.0527 H         1 <0>         0.0792
     43 H16         5.8392   -5.6708   -3.0904 H         1 <0>         0.2155
     44 H17        -1.6132   -0.9574   -1.0159 H         1 <0>         0.0913
     45 H18        -1.1427   -1.7298    0.5172 H         1 <0>         0.0996
     46 H19        -2.0552   -0.2016    0.5338 H         1 <0>         0.0818
@<TRIPOS>BOND
     1    1    2 1
     2    1   29 1
     3    1   30 1
     4    1   31 1
     5    2    7 ar
     6    2    3 ar
     7    3    4 ar
     8    3   32 1
     9    4    5 ar
    10    4   28 1
    11    5   12 1
    12    5    6 ar
    13    6    7 ar
    14    6    8 1
    15    7   33 1
    16    8    9 2
    17    8   10 1
    18   10   16 1
    19   10   11 2
    20   11   12 1
    21   11   13 1
    22   13   14 2
    23   13   15 am
    24   15   16 1
    25   15   25 1
    26   16   17 1
    27   16   18 1
    28   18   23 ar
    29   18   19 ar
    30   19   20 ar
    31   19   34 1
    32   20   21 ar
    33   20   35 1
    34   21   22 ar
    35   21   36 1
    36   22   23 ar
    37   22   24 1
    38   23   37 1
    39   24   38 1
    40   25   26 1
    41   25   39 1
    42   25   40 1
    43   26   27 1
    44   26   41 1
    45   26   42 1
    46   27   43 1
    47   28   44 1
    48   28   45 1
    49   28   46 1
@<TRIPOS>MOLECULE
ZINC02230035
   45    48     0     0     0
SMALL
USER_CHARGES

@<TRIPOS>ATOM
      1 C1         -4.9738    4.3452    2.4048 C.ar      1 <0>        -0.1214
      2 C2         -3.8855    3.7022    2.9643 C.ar      1 <0>        -0.1258
      3 C3         -2.6450    4.3121    2.9601 C.ar      1 <0>        -0.1047
      4 C4         -2.4926    5.5647    2.3956 C.ar      1 <0>        -0.0882
      5 C5         -3.5819    6.2098    1.8403 C.ar      1 <0>        -0.1020
      6 C6         -4.8216    5.5982    1.8411 C.ar      1 <0>        -0.1303
      7 C7         -1.1403    6.2297    2.3909 C.3       1 <0>         0.1535
      8 H1         -0.4917    5.7633    3.1325 H         1 <0>         0.1103
      9 C8         -0.5232    6.1290    1.0227 C.2       1 <0>        -0.1847
     10 C9         -0.0587    5.3275    0.0293 C.2       1 <0>        -0.0281
     11 N1          0.3857    6.1526   -0.9640 N.pl3     1 <0>        -0.1105
     12 H2          0.7822    5.8470   -1.8297 H         1 <0>         0.2921
     13 N2          0.2189    7.3803   -0.6214 N.2       1 <0>        -0.0117
     14 C10        -0.3265    7.4555    0.5763 C.2       1 <0>        -0.1789
     15 C11        -0.8132    8.3643    1.6298 C.2       1 <0>         0.3945
     16 O1         -0.7936    9.5780    1.5621 O.2       1 <0>        -0.3383
     17 N3         -1.2822    7.6624    2.6755 N.am      1 <0>        -0.3432
     18 C12        -1.8447    8.2348    3.9011 C.3       1 <0>         0.0254
     19 C13        -3.3536    8.4226    3.7305 C.3       1 <0>        -0.1982
     20 C14        -3.9410    9.0205    5.0105 C.3       1 <0>         0.0020
     21 O2         -5.3502    9.1959    4.8512 O.3       1 <0>        -0.3514
     22 C15        -0.0430    3.8482    0.0222 C.ar      1 <0>        -0.0634
     23 C16         1.1699    3.1603    0.0074 C.ar      1 <0>        -0.1007
     24 C17         1.1785    1.7806    0.0004 C.ar      1 <0>        -0.1416
     25 C18        -0.0126    1.0758    0.0080 C.ar      1 <0>        -0.1041
     26 C19        -1.2207    1.7470    0.0173 C.ar      1 <0>        -0.1571
     27 C20        -1.2454    3.1322    0.0299 C.ar      1 <0>         0.1007
     28 O3         -2.4322    3.7928    0.0443 O.3       1 <0>        -0.2731
     29 H3         -5.9430    3.8688    2.4084 H         1 <0>         0.1258
     30 H4         -4.0044    2.7234    3.4050 H         1 <0>         0.1257
     31 H5         -1.7948    3.8099    3.3975 H         1 <0>         0.1258
     32 H6         -3.4637    7.1903    1.4032 H         1 <0>         0.1400
     33 H7         -5.6719    6.1007    1.4043 H         1 <0>         0.1311
     34 H8         -1.6546    7.5617    4.7371 H         1 <0>         0.0886
     35 H9         -1.3785    9.2001    4.0985 H         1 <0>         0.1095
     36 H10        -3.5437    9.0957    2.8946 H         1 <0>         0.1102
     37 H11        -3.8198    7.4574    3.5331 H         1 <0>         0.1146
     38 H12        -3.7509    8.3473    5.8465 H         1 <0>         0.0538
     39 H13        -3.4748    9.9857    5.2080 H         1 <0>         0.0590
     40 H14        -5.7898    9.5719    5.6261 H         1 <0>         0.2092
     41 H15         2.1014    3.7069    0.0011 H         1 <0>         0.1382
     42 H16         2.1183    1.2486   -0.0115 H         1 <0>         0.1360
     43 H17         0.0021   -0.0041    0.0020 H         1 <0>         0.1356
     44 H18        -2.1466    1.1910    0.0187 H         1 <0>         0.1454
     45 H19        -2.7841    3.9886   -0.8349 H         1 <0>         0.2303
@<TRIPOS>BOND
     1    1    6 ar
     2    1    2 ar
     3    1   29 1
     4    2    3 ar
     5    2   30 1
     6    3    4 ar
     7    3   31 1
     8    4    5 ar
     9    4    7 1
    10    5    6 ar
    11    5   32 1
    12    6   33 1
    13    7    8 1
    14    7   17 1
    15    7    9 1
    16    9   14 1
    17    9   10 2
    18   10   11 1
    19   10   22 1
    20   11   12 1
    21   11   13 1
    22   13   14 2
    23   14   15 1
    24   15   16 2
    25   15   17 am
    26   17   18 1
    27   18   19 1
    28   18   34 1
    29   18   35 1
    30   19   20 1
    31   19   36 1
    32   19   37 1
    33   20   21 1
    34   20   38 1
    35   20   39 1
    36   21   40 1
    37   22   27 ar
    38   22   23 ar
    39   23   24 ar
    40   23   41 1
    41   24   25 ar
    42   24   42 1
    43   25   26 ar
    44   25   43 1
    45   26   27 ar
    46   26   44 1
    47   27   28 1
    48   28   45 1
@<TRIPOS>MOLECULE
ZINC02230035
   45    48     0     0     0
SMALL
USER_CHARGES

@<TRIPOS>ATOM
      1 C1         -4.9706    4.3577    2.4165 C.ar      1 <0>        -0.1198
      2 C2         -3.8829    3.7104    2.9722 C.ar      1 <0>        -0.1235
      3 C3         -2.6404    4.3162    2.9656 C.ar      1 <0>        -0.1012
      4 C4         -2.4855    5.5691    2.4024 C.ar      1 <0>        -0.0868
      5 C5         -3.5742    6.2186    1.8510 C.ar      1 <0>        -0.1032
      6 C6         -4.8158    5.6110    1.8542 C.ar      1 <0>        -0.1298
      7 C7         -1.1310    6.2298    2.3950 C.3       1 <0>         0.1444
      8 H1         -0.4820    5.7602    3.1342 H         1 <0>         0.1139
      9 C8         -0.5179    6.1290    1.0250 C.2       1 <0>        -0.1649
     10 C9         -0.0703    5.3274    0.0240 C.2       1 <0>        -0.0261
     11 N1          0.3676    6.1525   -0.9722 N.2       1 <0>        -0.1004
     12 H2          0.4485    8.1680   -1.1934 H         1 <0>         0.2934
     13 N2          0.2077    7.3803   -0.6264 N.pl3     1 <0>        -0.0042
     14 C10        -0.3181    7.4555    0.5800 C.2       1 <0>        -0.2115
     15 C11        -0.7991    8.3644    1.6361 C.2       1 <0>         0.3853
     16 O1         -0.7757    9.5781    1.5701 O.2       1 <0>        -0.3597
     17 N3         -1.2675    7.6625    2.6820 N.am      1 <0>        -0.3341
     18 C12        -1.8249    8.2350    3.9100 C.3       1 <0>         0.0230
     19 C13        -3.3336    8.4279    3.7437 C.3       1 <0>        -0.1979
     20 C14        -3.9157    9.0259    5.0261 C.3       1 <0>         0.0022
     21 O2         -5.3247    9.2061    4.8708 O.3       1 <0>        -0.3512
     22 C15        -0.0592    3.8481    0.0148 C.ar      1 <0>        -0.0327
     23 C16         1.1514    3.1565   -0.0120 C.ar      1 <0>        -0.0895
     24 C17         1.1557    1.7768   -0.0210 C.ar      1 <0>        -0.1440
     25 C18        -0.0375    1.0757   -0.0034 C.ar      1 <0>        -0.1094
     26 C19        -1.2434    1.7505    0.0178 C.ar      1 <0>        -0.1589
     27 C20        -1.2637    3.1358    0.0325 C.ar      1 <0>         0.0929
     28 O3         -2.4483    3.8000    0.0587 O.3       1 <0>        -0.2793
     29 H3         -5.9413    3.8844    2.4221 H         1 <0>         0.1263
     30 H4         -4.0037    2.7313    3.4118 H         1 <0>         0.1268
     31 H5         -1.7907    3.8107    3.4000 H         1 <0>         0.1270
     32 H6         -3.4539    7.1993    1.4149 H         1 <0>         0.1360
     33 H7         -5.6657    6.1168    1.4204 H         1 <0>         0.1306
     34 H8         -1.6347    7.5601    4.7445 H         1 <0>         0.0912
     35 H9         -1.3550    9.1985    4.1075 H         1 <0>         0.1089
     36 H10        -3.5238    9.1028    2.9092 H         1 <0>         0.1087
     37 H11        -3.8035    7.4645    3.5462 H         1 <0>         0.1165
     38 H12        -3.7255    8.3509    5.8606 H         1 <0>         0.0548
     39 H13        -3.4458    9.9893    5.2237 H         1 <0>         0.0585
     40 H14        -5.7610    9.5824    5.6474 H         1 <0>         0.2099
     41 H15         2.0845    3.7003   -0.0261 H         1 <0>         0.1413
     42 H16         2.0937    1.2419   -0.0422 H         1 <0>         0.1331
     43 H17        -0.0262   -0.0043   -0.0110 H         1 <0>         0.1321
     44 H18        -2.1709    1.1974    0.0270 H         1 <0>         0.1415
     45 H19        -2.8076    3.9981   -0.8170 H         1 <0>         0.2298
@<TRIPOS>BOND
     1    1    6 ar
     2    1    2 ar
     3    1   29 1
     4    2    3 ar
     5    2   30 1
     6    3    4 ar
     7    3   31 1
     8    4    5 ar
     9    4    7 1
    10    5    6 ar
    11    5   32 1
    12    6   33 1
    13    7    8 1
    14    7   17 1
    15    7    9 1
    16    9   10 1
    17    9   14 2
    18   10   22 1
    19   10   11 2
    20   11   13 1
    21   12   13 1
    22   13   14 1
    23   14   15 1
    24   15   16 2
    25   15   17 am
    26   17   18 1
    27   18   19 1
    28   18   34 1
    29   18   35 1
    30   19   20 1
    31   19   36 1
    32   19   37 1
    33   20   21 1
    34   20   38 1
    35   20   39 1
    36   21   40 1
    37   22   27 ar
    38   22   23 ar
    39   23   24 ar
    40   23   41 1
    41   24   25 ar
    42   24   42 1
    43   25   26 ar
    44   25   43 1
    45   26   27 ar
    46   26   44 1
    47   27   28 1
    48   28   45 1
@<TRIPOS>MOLECULE
ZINC02230035
   45    48     0     0     0
SMALL
USER_CHARGES

@<TRIPOS>ATOM
      1 C1         -4.9706    4.3577    2.4165 C.ar      1 <0>        -0.1198
      2 C2         -3.8829    3.7104    2.9722 C.ar      1 <0>        -0.1235
      3 C3         -2.6404    4.3162    2.9656 C.ar      1 <0>        -0.1012
      4 C4         -2.4855    5.5691    2.4024 C.ar      1 <0>        -0.0868
      5 C5         -3.5742    6.2186    1.8510 C.ar      1 <0>        -0.1032
      6 C6         -4.8158    5.6110    1.8542 C.ar      1 <0>        -0.1298
      7 C7         -1.1310    6.2298    2.3950 C.3       1 <0>         0.1444
      8 H1         -0.4820    5.7602    3.1342 H         1 <0>         0.1139
      9 C8         -0.5179    6.1290    1.0250 C.2       1 <0>        -0.1649
     10 C9         -0.0703    5.3274    0.0240 C.2       1 <0>        -0.0261
     11 N1          0.3676    6.1525   -0.9722 N.2       1 <0>        -0.1004
     12 H2          0.4485    8.1680   -1.1934 H         1 <0>         0.2934
     13 N2          0.2077    7.3803   -0.6264 N.pl3     1 <0>        -0.0042
     14 C10        -0.3181    7.4555    0.5800 C.2       1 <0>        -0.2115
     15 C11        -0.7991    8.3644    1.6361 C.2       1 <0>         0.3853
     16 O1         -0.7757    9.5781    1.5701 O.2       1 <0>        -0.3597
     17 N3         -1.2675    7.6625    2.6820 N.am      1 <0>        -0.3341
     18 C12        -1.8249    8.2350    3.9100 C.3       1 <0>         0.0230
     19 C13        -3.3336    8.4279    3.7437 C.3       1 <0>        -0.1979
     20 C14        -3.9157    9.0259    5.0261 C.3       1 <0>         0.0022
     21 O2         -5.3247    9.2061    4.8708 O.3       1 <0>        -0.3512
     22 C15        -0.0592    3.8481    0.0148 C.ar      1 <0>        -0.0327
     23 C16         1.1514    3.1565   -0.0120 C.ar      1 <0>        -0.0895
     24 C17         1.1557    1.7768   -0.0210 C.ar      1 <0>        -0.1440
     25 C18        -0.0375    1.0757   -0.0034 C.ar      1 <0>        -0.1094
     26 C19        -1.2434    1.7505    0.0178 C.ar      1 <0>        -0.1589
     27 C20        -1.2637    3.1358    0.0325 C.ar      1 <0>         0.0929
     28 O3         -2.4483    3.8000    0.0587 O.3       1 <0>        -0.2793
     29 H3         -5.9413    3.8844    2.4221 H         1 <0>         0.1263
     30 H4         -4.0037    2.7313    3.4118 H         1 <0>         0.1268
     31 H5         -1.7907    3.8107    3.4000 H         1 <0>         0.1270
     32 H6         -3.4539    7.1993    1.4149 H         1 <0>         0.1360
     33 H7         -5.6657    6.1168    1.4204 H         1 <0>         0.1306
     34 H8         -1.6347    7.5601    4.7445 H         1 <0>         0.0912
     35 H9         -1.3550    9.1985    4.1075 H         1 <0>         0.1089
     36 H10        -3.5238    9.1028    2.9092 H         1 <0>         0.1087
     37 H11        -3.8035    7.4645    3.5462 H         1 <0>         0.1165
     38 H12        -3.7255    8.3509    5.8606 H         1 <0>         0.0548
     39 H13        -3.4458    9.9893    5.2237 H         1 <0>         0.0585
     40 H14        -5.7610    9.5824    5.6474 H         1 <0>         0.2099
     41 H15         2.0845    3.7003   -0.0261 H         1 <0>         0.1413
     42 H16         2.0937    1.2419   -0.0422 H         1 <0>         0.1331
     43 H17        -0.0262   -0.0043   -0.0110 H         1 <0>         0.1321
     44 H18        -2.1709    1.1974    0.0270 H         1 <0>         0.1415
     45 H19        -2.8076    3.9981   -0.8170 H         1 <0>         0.2298
@<TRIPOS>BOND
     1    1    6 ar
     2    1    2 ar
     3    1   29 1
     4    2    3 ar
     5    2   30 1
     6    3    4 ar
     7    3   31 1
     8    4    5 ar
     9    4    7 1
    10    5    6 ar
    11    5   32 1
    12    6   33 1
    13    7    8 1
    14    7   17 1
    15    7    9 1
    16    9   10 1
    17    9   14 2
    18   10   22 1
    19   10   11 2
    20   11   13 1
    21   12   13 1
    22   13   14 1
    23   14   15 1
    24   15   16 2
    25   15   17 am
    26   17   18 1
    27   18   19 1
    28   18   34 1
    29   18   35 1
    30   19   20 1
    31   19   36 1
    32   19   37 1
    33   20   21 1
    34   20   38 1
    35   20   39 1
    36   21   40 1
    37   22   27 ar
    38   22   23 ar
    39   23   24 ar
    40   23   41 1
    41   24   25 ar
    42   24   42 1
    43   25   26 ar
    44   25   43 1
    45   26   27 ar
    46   26   44 1
    47   27   28 1
    48   28   45 1
@<TRIPOS>MOLECULE
ZINC02230037
   45    48     0     0     0
SMALL
USER_CHARGES

@<TRIPOS>ATOM
      1 C1          1.7359    5.2827    3.5156 C.ar      1 <0>        -0.1231
      2 C2          1.2062    5.7096    2.3123 C.ar      1 <0>        -0.1327
      3 C3          1.3727    4.9440    1.1734 C.ar      1 <0>        -0.1137
      4 C4          2.0693    3.7517    1.2378 C.ar      1 <0>        -0.0995
      5 C5          2.5945    3.3223    2.4422 C.ar      1 <0>        -0.1054
      6 C6          2.4317    4.0900    3.5802 C.ar      1 <0>        -0.1299
      7 C7          2.2508    2.9171   -0.0038 C.3       1 <0>         0.1524
      8 H1          2.1018    3.5309   -0.8921 H         1 <0>         0.1208
      9 C8          1.2794    1.7686   -0.0007 C.2       1 <0>        -0.1820
     10 C9         -0.0164    1.3614    0.0095 C.2       1 <0>        -0.0293
     11 N1          0.0021   -0.0041    0.0020 N.pl3     1 <0>        -0.1107
     12 H2         -0.8088   -0.5893    0.0066 H         1 <0>         0.2919
     13 N2          1.2164   -0.4258   -0.0118 N.2       1 <0>        -0.0116
     14 C10         2.0576    0.5889   -0.0144 C.2       1 <0>        -0.1792
     15 C11         3.4777    0.9839   -0.0263 C.2       1 <0>         0.3945
     16 O1          4.4133    0.2077   -0.0400 O.2       1 <0>        -0.3385
     17 N3          3.5926    2.3230   -0.0198 N.am      1 <0>        -0.3431
     18 C12         4.8535    3.0689   -0.0270 C.3       1 <0>         0.0252
     19 C13         5.3058    3.3199    1.4129 C.3       1 <0>        -0.1989
     20 C14         6.6226    4.0989    1.4054 C.3       1 <0>         0.0020
     21 O2          7.0451    4.3334    2.7502 O.3       1 <0>        -0.3518
     22 C15        -1.2150    2.2287    0.0202 C.ar      1 <0>        -0.0563
     23 C16        -2.0756    2.2211    1.1174 C.ar      1 <0>        -0.0962
     24 C17        -3.1917    3.0323    1.1222 C.ar      1 <0>        -0.1376
     25 C18        -3.4606    3.8546    0.0419 C.ar      1 <0>        -0.1045
     26 C19        -2.6144    3.8708   -1.0508 C.ar      1 <0>        -0.1558
     27 C20        -1.4875    3.0650   -1.0682 C.ar      1 <0>         0.0929
     28 O3         -0.6526    3.0836   -2.1396 O.3       1 <0>        -0.2867
     29 H3          1.6065    5.8812    4.4053 H         1 <0>         0.1287
     30 H4          0.6626    6.6415    2.2618 H         1 <0>         0.1290
     31 H5          0.9589    5.2775    0.2332 H         1 <0>         0.1340
     32 H6          3.1349    2.3886    2.4934 H         1 <0>         0.1437
     33 H7          2.8458    3.7566    4.5203 H         1 <0>         0.1346
     34 H8          5.6145    2.4910   -0.5514 H         1 <0>         0.1098
     35 H9          4.7084    4.0229   -0.5338 H         1 <0>         0.0895
     36 H10         4.5448    3.8978    1.9373 H         1 <0>         0.1138
     37 H11         5.4510    2.3659    1.9197 H         1 <0>         0.1101
     38 H12         7.3836    3.5210    0.8810 H         1 <0>         0.0593
     39 H13         6.4775    5.0530    0.8986 H         1 <0>         0.0541
     40 H14         7.8754    4.8237    2.8218 H         1 <0>         0.2095
     41 H15        -1.8687    1.5813    1.9625 H         1 <0>         0.1406
     42 H16        -3.8578    3.0259    1.9723 H         1 <0>         0.1369
     43 H17        -4.3359    4.4872    0.0529 H         1 <0>         0.1360
     44 H18        -2.8300    4.5148   -1.8905 H         1 <0>         0.1443
     45 H19        -0.8813    2.4438   -2.8277 H         1 <0>         0.2327
@<TRIPOS>BOND
     1    1    6 ar
     2    1    2 ar
     3    1   29 1
     4    2    3 ar
     5    2   30 1
     6    3    4 ar
     7    3   31 1
     8    4    5 ar
     9    4    7 1
    10    5    6 ar
    11    5   32 1
    12    6   33 1
    13    7    8 1
    14    7   17 1
    15    7    9 1
    16    9   14 1
    17    9   10 2
    18   10   11 1
    19   10   22 1
    20   11   12 1
    21   11   13 1
    22   13   14 2
    23   14   15 1
    24   15   16 2
    25   15   17 am
    26   17   18 1
    27   18   19 1
    28   18   34 1
    29   18   35 1
    30   19   20 1
    31   19   36 1
    32   19   37 1
    33   20   21 1
    34   20   38 1
    35   20   39 1
    36   21   40 1
    37   22   27 ar
    38   22   23 ar
    39   23   24 ar
    40   23   41 1
    41   24   25 ar
    42   24   42 1
    43   25   26 ar
    44   25   43 1
    45   26   27 ar
    46   26   44 1
    47   27   28 1
    48   28   45 1
@<TRIPOS>MOLECULE
ZINC02230037
   45    48     0     0     0
SMALL
USER_CHARGES

@<TRIPOS>ATOM
      1 C1          1.7200    5.2824    3.5238 C.ar      1 <0>        -0.1219
      2 C2          1.1958    5.7094    2.3181 C.ar      1 <0>        -0.1310
      3 C3          1.3675    4.9439    1.1799 C.ar      1 <0>        -0.1109
      4 C4          2.0637    3.7516    1.2474 C.ar      1 <0>        -0.0983
      5 C5          2.5834    3.3221    2.4542 C.ar      1 <0>        -0.1070
      6 C6          2.4155    4.0897    3.5915 C.ar      1 <0>        -0.1296
      7 C7          2.2509    2.9170    0.0066 C.3       1 <0>         0.1433
      8 H1          2.1059    3.5309   -0.8823 H         1 <0>         0.1250
      9 C8          1.2794    1.7686    0.0052 C.2       1 <0>        -0.1622
     10 C9         -0.0164    1.3614    0.0094 C.2       1 <0>        -0.0270
     11 N1          0.0021   -0.0041    0.0019 N.2       1 <0>        -0.1006
     12 H2          1.4851   -1.3889   -0.0258 H         1 <0>         0.2934
     13 N2          1.2164   -0.4258   -0.0119 N.pl3     1 <0>        -0.0041
     14 C10         2.0577    0.5888   -0.0050 C.2       1 <0>        -0.2119
     15 C11         3.4778    0.9838   -0.0104 C.2       1 <0>         0.3853
     16 O1          4.4135    0.2076   -0.0199 O.2       1 <0>        -0.3599
     17 N3          3.5927    2.3229   -0.0033 N.am      1 <0>        -0.3341
     18 C12         4.8537    3.0688   -0.0047 C.3       1 <0>         0.0229
     19 C13         5.2994    3.3197    1.4372 C.3       1 <0>        -0.1985
     20 C14         6.6162    4.0986    1.4358 C.3       1 <0>         0.0022
     21 O2          7.0326    4.3331    2.7825 O.3       1 <0>        -0.3516
     22 C15        -1.2150    2.2287    0.0201 C.ar      1 <0>        -0.0257
     23 C16        -2.0756    2.2211    1.1173 C.ar      1 <0>        -0.0852
     24 C17        -3.1917    3.0323    1.1221 C.ar      1 <0>        -0.1400
     25 C18        -3.4606    3.8546    0.0418 C.ar      1 <0>        -0.1099
     26 C19        -2.6144    3.8708   -1.0509 C.ar      1 <0>        -0.1575
     27 C20        -1.4875    3.0650   -1.0683 C.ar      1 <0>         0.0852
     28 O3         -0.6525    3.0837   -2.1396 O.3       1 <0>        -0.2924
     29 H3          1.5866    5.8809    4.4129 H         1 <0>         0.1293
     30 H4          0.6525    6.6413    2.2652 H         1 <0>         0.1303
     31 H5          0.9580    5.2775    0.2379 H         1 <0>         0.1359
     32 H6          3.1236    2.3884    2.5078 H         1 <0>         0.1401
     33 H7          2.8253    3.7563    4.5334 H         1 <0>         0.1342
     34 H8          5.6170    2.4909   -0.5257 H         1 <0>         0.1092
     35 H9          4.7109    4.0228   -0.5121 H         1 <0>         0.0922
     36 H10         4.5360    3.8976    1.9582 H         1 <0>         0.1156
     37 H11         5.4423    2.3656    1.9446 H         1 <0>         0.1085
     38 H12         7.3796    3.5208    0.9148 H         1 <0>         0.0589
     39 H13         6.4735    5.0528    0.9284 H         1 <0>         0.0551
     40 H14         7.8626    4.8233    2.8579 H         1 <0>         0.2102
     41 H15        -1.8688    1.5813    1.9624 H         1 <0>         0.1437
     42 H16        -3.8579    3.0259    1.9721 H         1 <0>         0.1340
     43 H17        -4.3359    4.4872    0.0528 H         1 <0>         0.1325
     44 H18        -2.8299    4.5148   -1.8906 H         1 <0>         0.1405
     45 H19        -0.8812    2.4439   -2.8278 H         1 <0>         0.2320
@<TRIPOS>BOND
     1    1    6 ar
     2    1    2 ar
     3    1   29 1
     4    2    3 ar
     5    2   30 1
     6    3    4 ar
     7    3   31 1
     8    4    5 ar
     9    4    7 1
    10    5    6 ar
    11    5   32 1
    12    6   33 1
    13    7    8 1
    14    7   17 1
    15    7    9 1
    16    9   10 1
    17    9   14 2
    18   10   22 1
    19   10   11 2
    20   11   13 1
    21   12   13 1
    22   13   14 1
    23   14   15 1
    24   15   16 2
    25   15   17 am
    26   17   18 1
    27   18   19 1
    28   18   34 1
    29   18   35 1
    30   19   20 1
    31   19   36 1
    32   19   37 1
    33   20   21 1
    34   20   38 1
    35   20   39 1
    36   21   40 1
    37   22   27 ar
    38   22   23 ar
    39   23   24 ar
    40   23   41 1
    41   24   25 ar
    42   24   42 1
    43   25   26 ar
    44   25   43 1
    45   26   27 ar
    46   26   44 1
    47   27   28 1
    48   28   45 1
@<TRIPOS>MOLECULE
ZINC02230037
   45    48     0     0     0
SMALL
USER_CHARGES

@<TRIPOS>ATOM
      1 C1          1.7200    5.2824    3.5238 C.ar      1 <0>        -0.1219
      2 C2          1.1958    5.7094    2.3181 C.ar      1 <0>        -0.1310
      3 C3          1.3675    4.9439    1.1799 C.ar      1 <0>        -0.1109
      4 C4          2.0637    3.7516    1.2474 C.ar      1 <0>        -0.0983
      5 C5          2.5834    3.3221    2.4542 C.ar      1 <0>        -0.1070
      6 C6          2.4155    4.0897    3.5915 C.ar      1 <0>        -0.1296
      7 C7          2.2509    2.9170    0.0066 C.3       1 <0>         0.1433
      8 H1          2.1059    3.5309   -0.8823 H         1 <0>         0.1250
      9 C8          1.2794    1.7686    0.0052 C.2       1 <0>        -0.1622
     10 C9         -0.0164    1.3614    0.0094 C.2       1 <0>        -0.0270
     11 N1          0.0021   -0.0041    0.0019 N.2       1 <0>        -0.1006
     12 H2          1.4851   -1.3889   -0.0258 H         1 <0>         0.2934
     13 N2          1.2164   -0.4258   -0.0119 N.pl3     1 <0>        -0.0041
     14 C10         2.0577    0.5888   -0.0050 C.2       1 <0>        -0.2119
     15 C11         3.4778    0.9838   -0.0104 C.2       1 <0>         0.3853
     16 O1          4.4135    0.2076   -0.0199 O.2       1 <0>        -0.3599
     17 N3          3.5927    2.3229   -0.0033 N.am      1 <0>        -0.3341
     18 C12         4.8537    3.0688   -0.0047 C.3       1 <0>         0.0229
     19 C13         5.2994    3.3197    1.4372 C.3       1 <0>        -0.1985
     20 C14         6.6162    4.0986    1.4358 C.3       1 <0>         0.0022
     21 O2          7.0326    4.3331    2.7825 O.3       1 <0>        -0.3516
     22 C15        -1.2150    2.2287    0.0201 C.ar      1 <0>        -0.0257
     23 C16        -2.0756    2.2211    1.1173 C.ar      1 <0>        -0.0852
     24 C17        -3.1917    3.0323    1.1221 C.ar      1 <0>        -0.1400
     25 C18        -3.4606    3.8546    0.0418 C.ar      1 <0>        -0.1099
     26 C19        -2.6144    3.8708   -1.0509 C.ar      1 <0>        -0.1575
     27 C20        -1.4875    3.0650   -1.0683 C.ar      1 <0>         0.0852
     28 O3         -0.6525    3.0837   -2.1396 O.3       1 <0>        -0.2924
     29 H3          1.5866    5.8809    4.4129 H         1 <0>         0.1293
     30 H4          0.6525    6.6413    2.2652 H         1 <0>         0.1303
     31 H5          0.9580    5.2775    0.2379 H         1 <0>         0.1359
     32 H6          3.1236    2.3884    2.5078 H         1 <0>         0.1401
     33 H7          2.8253    3.7563    4.5334 H         1 <0>         0.1342
     34 H8          5.6170    2.4909   -0.5257 H         1 <0>         0.1092
     35 H9          4.7109    4.0228   -0.5121 H         1 <0>         0.0922
     36 H10         4.5360    3.8976    1.9582 H         1 <0>         0.1156
     37 H11         5.4423    2.3656    1.9446 H         1 <0>         0.1085
     38 H12         7.3796    3.5208    0.9148 H         1 <0>         0.0589
     39 H13         6.4735    5.0528    0.9284 H         1 <0>         0.0551
     40 H14         7.8626    4.8233    2.8579 H         1 <0>         0.2102
     41 H15        -1.8688    1.5813    1.9624 H         1 <0>         0.1437
     42 H16        -3.8579    3.0259    1.9721 H         1 <0>         0.1340
     43 H17        -4.3359    4.4872    0.0528 H         1 <0>         0.1325
     44 H18        -2.8299    4.5148   -1.8906 H         1 <0>         0.1405
     45 H19        -0.8812    2.4439   -2.8278 H         1 <0>         0.2320
@<TRIPOS>BOND
     1    1    6 ar
     2    1    2 ar
     3    1   29 1
     4    2    3 ar
     5    2   30 1
     6    3    4 ar
     7    3   31 1
     8    4    5 ar
     9    4    7 1
    10    5    6 ar
    11    5   32 1
    12    6   33 1
    13    7    8 1
    14    7   17 1
    15    7    9 1
    16    9   10 1
    17    9   14 2
    18   10   22 1
    19   10   11 2
    20   11   13 1
    21   12   13 1
    22   13   14 1
    23   14   15 1
    24   15   16 2
    25   15   17 am
    26   17   18 1
    27   18   19 1
    28   18   34 1
    29   18   35 1
    30   19   20 1
    31   19   36 1
    32   19   37 1
    33   20   21 1
    34   20   38 1
    35   20   39 1
    36   21   40 1
    37   22   27 ar
    38   22   23 ar
    39   23   24 ar
    40   23   41 1
    41   24   25 ar
    42   24   42 1
    43   25   26 ar
    44   25   43 1
    45   26   27 ar
    46   26   44 1
    47   27   28 1
    48   28   45 1
@<TRIPOS>MOLECULE
ZINC02239389
   42    46     0     0     0
SMALL
USER_CHARGES

@<TRIPOS>ATOM
      1 C1          1.1545    1.7758    0.0006 C.ar      1 <0>        -0.1250
      2 C2          1.1555    3.1696    0.0071 C.ar      1 <0>        -0.1199
      3 C3         -0.0105    3.8711    0.0211 C.ar      1 <0>        -0.1202
      4 C4         -1.2360    3.1831    0.0296 C.ar      1 <0>        -0.0237
      5 C5         -1.2371    1.7657    0.0175 C.ar      1 <0>        -0.0392
      6 C6         -0.0126    1.0758    0.0080 C.ar      1 <0>        -0.1145
      7 C7         -2.4621    1.0777    0.0322 C.ar      1 <0>        -0.1038
      8 C8         -3.6285    1.7794    0.0471 C.ar      1 <0>        -0.1328
      9 C9         -3.6274    3.1727    0.0528 C.ar      1 <0>        -0.1010
     10 C10        -2.4600    3.8727    0.0446 C.ar      1 <0>        -0.1015
     11 C11        -2.4804    5.3796    0.0510 C.3       1 <0>         0.0529
     12 N1         -2.2607    5.8767   -1.3094 N.pl3     1 <0>        -0.3415
     13 C12        -2.2375    7.2477   -1.5547 C.2       1 <0>         0.1428
     14 N2         -2.4085    8.2017   -0.6344 N.2       1 <0>        -0.2995
     15 C13        -2.3248    9.3879   -1.2017 C.2       1 <0>         0.1630
     16 N3         -2.4256   10.6636   -0.7009 N.pl3     1 <0>        -0.2160
     17 H1         -2.5916   10.8015    0.2755 H         1 <0>         0.2678
     18 C14        -2.3008   11.7455   -1.5269 C.2       1 <0>         0.0610
     19 C15        -2.0773   11.5599   -2.8465 C.2       1 <0>        -0.2541
     20 C16        -1.9760   10.2456   -3.3574 C.2       1 <0>         0.3747
     21 O1         -1.7763   10.0664   -4.5459 O.2       1 <0>        -0.3031
     22 N4         -2.1007    9.1943   -2.5299 N.am      1 <0>        -0.1655
     23 N5         -2.0497    7.8075   -2.7279 N.2       1 <0>        -0.1341
     24 C17        -1.9745   12.8938   -3.5542 C.3       1 <0>        -0.0825
     25 C18        -1.7340   13.9255   -2.4307 C.3       1 <0>        -0.1585
     26 C19        -2.3722   13.2247   -1.2117 C.3       1 <0>        -0.1208
     27 H2          2.0940    1.2432   -0.0109 H         1 <0>         0.1292
     28 H3          2.0958    3.7008    0.0006 H         1 <0>         0.1306
     29 H4          0.0058    4.9510    0.0253 H         1 <0>         0.1427
     30 H5          0.0021   -0.0041    0.0020 H         1 <0>         0.1329
     31 H6         -2.4783   -0.0022    0.0271 H         1 <0>         0.1338
     32 H7         -4.5687    1.2481    0.0542 H         1 <0>         0.1312
     33 H8         -4.5669    3.7052    0.0644 H         1 <0>         0.1337
     34 H9         -3.4473    5.7283    0.4136 H         1 <0>         0.0925
     35 H10        -1.6916    5.7508    0.7053 H         1 <0>         0.0947
     36 H11        -2.1314    5.2512   -2.0394 H         1 <0>         0.2569
     37 H12        -1.1358   12.8895   -4.2503 H         1 <0>         0.1091
     38 H13        -2.9030   13.1161   -4.0800 H         1 <0>         0.1013
     39 H14        -0.6678   14.0877   -2.2726 H         1 <0>         0.0991
     40 H15        -2.2413   14.8651   -2.6496 H         1 <0>         0.0996
     41 H16        -1.8054   13.4470   -0.3076 H         1 <0>         0.0974
     42 H17        -3.4099   13.5374   -1.0956 H         1 <0>         0.1104
@<TRIPOS>BOND
     1    1    6 ar
     2    1    2 ar
     3    1   27 1
     4    2    3 ar
     5    2   28 1
     6    3    4 ar
     7    3   29 1
     8    4   10 ar
     9    4    5 ar
    10    5    6 ar
    11    5    7 ar
    12    6   30 1
    13    7    8 ar
    14    7   31 1
    15    8    9 ar
    16    8   32 1
    17    9   10 ar
    18    9   33 1
    19   10   11 1
    20   11   12 1
    21   11   34 1
    22   11   35 1
    23   12   13 1
    24   12   36 1
    25   13   23 2
    26   13   14 1
    27   14   15 2
    28   15   22 1
    29   15   16 1
    30   16   17 1
    31   16   18 1
    32   18   26 1
    33   18   19 2
    34   19   20 1
    35   19   24 1
    36   20   21 2
    37   20   22 am
    38   22   23 1
    39   24   25 1
    40   24   37 1
    41   24   38 1
    42   25   26 1
    43   25   39 1
    44   25   40 1
    45   26   41 1
    46   26   42 1
@<TRIPOS>MOLECULE
ZINC02239738
   40    42     0     0     0
SMALL
USER_CHARGES

@<TRIPOS>ATOM
      1 C1         -2.5342    1.4411    0.0217 C.3       1 <0>        -0.1892
      2 C2         -1.2253    2.1881    0.0197 C.ar      1 <0>        -0.0032
      3 C3         -1.2016    3.5764    0.0328 C.ar      1 <0>        -0.1535
      4 C4          0.0124    4.2298    0.0252 C.ar      1 <0>        -0.0433
      5 N1          1.1511    3.5447    0.0106 N.ar      1 <0>         0.1261
      6 C5          1.1619    2.2161    0.0029 C.ar      1 <0>         0.0062
      7 C6         -0.0184    1.5028    0.0103 C.ar      1 <0>        -0.1004
      8 C7          0.0021   -0.0041    0.0020 C.3       1 <0>        -0.1765
      9 C8          2.3397    4.2232    0.0029 C.2       1 <0>         0.0130
     10 C9          2.4598    5.4102   -0.6733 C.2       1 <0>        -0.3379
     11 S1          4.1640    5.8367   -0.3508 S.3       1 <0>         0.1631
     12 C10         4.5890    4.4142    0.6416 C.2       1 <0>         0.2149
     13 O1          5.6522    4.1346    1.1654 O.2       1 <0>        -0.3046
     14 N2          3.4226    3.7279    0.6614 N.2       1 <0>        -0.4057
     15 C11         1.4563    6.1364   -1.4519 C.2       1 <0>        -0.0846
     16 N3          1.7680    7.2629   -2.0267 N.2       1 <0>         0.0324
     17 N4          0.8071    7.9583   -2.7723 N.am      1 <0>        -0.3317
     18 C12         1.1296    9.1240   -3.3670 C.2       1 <0>         0.3582
     19 O2          2.2545    9.5720   -3.2565 O.2       1 <0>        -0.2976
     20 C13         0.1141    9.8588   -4.1549 C.ar      1 <0>        -0.0860
     21 C14        -1.1839    9.3583   -4.2995 C.ar      1 <0>        -0.1764
     22 C15        -2.1010   10.0793   -5.0390 C.ar      1 <0>        -0.0493
     23 N5         -1.7636   11.2176   -5.6121 N.ar      1 <0>        -0.1496
     24 C16        -0.5503   11.7221   -5.5053 C.ar      1 <0>        -0.0486
     25 C17         0.4277   11.0700   -4.7802 C.ar      1 <0>        -0.1258
     26 H1         -2.8449    1.2554    1.0498 H         1 <0>         0.1127
     27 H2         -3.2933    2.0367   -0.4853 H         1 <0>         0.0988
     28 H3         -2.4110    0.4909   -0.4979 H         1 <0>         0.1042
     29 H4         -2.1239    4.1381    0.0447 H         1 <0>         0.1711
     30 H5          0.0383    5.3094    0.0308 H         1 <0>         0.2097
     31 H6          2.1047    1.6894   -0.0090 H         1 <0>         0.2257
     32 H7          0.0168   -0.3729    1.0276 H         1 <0>         0.1101
     33 H8         -0.8878   -0.3767   -0.5053 H         1 <0>         0.0984
     34 H9          0.8920   -0.3525   -0.5222 H         1 <0>         0.1036
     35 H10         0.4571    5.7384   -1.5501 H         1 <0>         0.0921
     36 H11        -0.0904    7.6008   -2.8604 H         1 <0>         0.1994
     37 H12        -1.4660    8.4242   -3.8365 H         1 <0>         0.1261
     38 H13        -3.1069    9.7032   -5.1531 H         1 <0>         0.1608
     39 H14        -0.3179   12.6579   -5.9917 H         1 <0>         0.1689
     40 H15         1.4198   11.4889   -4.6975 H         1 <0>         0.1685
@<TRIPOS>BOND
     1    1    2 1
     2    1   26 1
     3    1   27 1
     4    1   28 1
     5    2    7 ar
     6    2    3 ar
     7    3    4 ar
     8    3   29 1
     9    4    5 ar
    10    4   30 1
    11    5    6 ar
    12    5    9 1
    13    6    7 ar
    14    6   31 1
    15    7    8 1
    16    8   32 1
    17    8   33 1
    18    8   34 1
    19    9   14 1
    20    9   10 2
    21   10   11 1
    22   10   15 1
    23   11   12 1
    24   12   13 2
    25   12   14 1
    26   15   16 2
    27   15   35 1
    28   16   17 1
    29   17   18 am
    30   17   36 1
    31   18   19 2
    32   18   20 1
    33   20   25 ar
    34   20   21 ar
    35   21   22 ar
    36   21   37 1
    37   22   23 ar
    38   22   38 1
    39   23   24 ar
    40   24   25 ar
    41   24   39 1
    42   25   40 1
@<TRIPOS>MOLECULE
ZINC02241203
   41    43     0     0     0
SMALL
USER_CHARGES

@<TRIPOS>ATOM
      1 C1          4.7305   15.1857    1.1658 C.3       1 <0>        -0.2074
      2 C2          4.4964   13.6874    0.9630 C.3       1 <0>        -0.1157
      3 C3          5.8145   12.9346    1.1552 C.3       1 <0>        -0.2101
      4 C4          3.4709   13.1887    1.9831 C.3       1 <0>        -0.0634
      5 C5          3.1485   11.7430    1.7057 C.2       1 <0>        -0.2114
      6 N1          3.7170   10.6453    2.1636 N.2       1 <0>        -0.0621
      7 N2          3.3227    9.4950    1.8292 N.2       1 <0>        -0.0921
      8 C6          2.3085    9.3188    0.9934 C.2       1 <0>        -0.0651
      9 S1          1.8888   11.0262    0.6544 S.3       1 <0>         0.1819
     10 N3          1.7386    8.1456    0.5135 N.am      1 <0>        -0.2650
     11 C7          2.2260    6.9511    0.9034 C.2       1 <0>         0.3827
     12 O1          3.1641    6.8999    1.6750 O.2       1 <0>        -0.2791
     13 C8          1.6204    5.7043    0.3934 C.2       1 <0>        -0.1671
     14 C9          2.0216    4.3883    0.7113 C.2       1 <0>        -0.1675
     15 C10         1.1794    3.5715    0.0095 C.2       1 <0>        -0.0670
     16 N4          0.3328    4.3827   -0.6869 N.pl3     1 <0>        -0.0848
     17 H1         -0.3933    4.0656   -1.2970 H         1 <0>         0.3004
     18 N5          0.6056    5.6141   -0.4436 N.2       1 <0>        -0.0834
     19 C11         1.1887    2.0921    0.0019 C.ar      1 <0>        -0.0503
     20 C12         2.3987    1.3990   -0.0138 C.ar      1 <0>        -0.0888
     21 C13         2.4014    0.0193   -0.0217 C.ar      1 <0>        -0.1334
     22 C14         1.2073   -0.6804   -0.0136 C.ar      1 <0>        -0.1060
     23 C15         0.0021   -0.0041    0.0020 C.ar      1 <0>        -0.1487
     24 C16        -0.0167    1.3812    0.0096 C.ar      1 <0>         0.0735
     25 O2         -1.2008    2.0470    0.0189 O.3       1 <0>        -0.3038
     26 H2          5.1057   15.3617    2.1739 H         1 <0>         0.0769
     27 H3          5.4611   15.5409    0.4390 H         1 <0>         0.0803
     28 H4          3.7915   15.7219    1.0288 H         1 <0>         0.0713
     29 H5          4.1212   13.5114   -0.0452 H         1 <0>         0.0934
     30 H6          5.6478   11.8672    1.0108 H         1 <0>         0.0925
     31 H7          6.5451   13.2899    0.4285 H         1 <0>         0.0730
     32 H8          6.1897   13.1106    2.1634 H         1 <0>         0.0793
     33 H9          2.5618   13.7851    1.9056 H         1 <0>         0.0987
     34 H10         3.8826   13.2829    2.9879 H         1 <0>         0.1196
     35 H11         0.9901    8.1865   -0.1021 H         1 <0>         0.2612
     36 H12         2.8244    4.0901    1.3692 H         1 <0>         0.1822
     37 H13         3.3325    1.9416   -0.0198 H         1 <0>         0.1463
     38 H14         3.3389   -0.5167   -0.0346 H         1 <0>         0.1390
     39 H15         1.2173   -1.7603   -0.0198 H         1 <0>         0.1373
     40 H16        -0.9262   -0.5561    0.0079 H         1 <0>         0.1446
     41 H17        -1.5394    2.2350    0.9049 H         1 <0>         0.2379
@<TRIPOS>BOND
     1    1    2 1
     2    1   26 1
     3    1   27 1
     4    1   28 1
     5    2    3 1
     6    2    4 1
     7    2   29 1
     8    3   30 1
     9    3   31 1
    10    3   32 1
    11    4    5 1
    12    4   33 1
    13    4   34 1
    14    5    9 1
    15    5    6 2
    16    6    7 1
    17    7    8 2
    18    8    9 1
    19    8   10 1
    20   10   11 am
    21   10   35 1
    22   11   12 2
    23   11   13 1
    24   13   18 2
    25   13   14 1
    26   14   15 2
    27   14   36 1
    28   15   16 1
    29   15   19 1
    30   16   17 1
    31   16   18 1
    32   19   24 ar
    33   19   20 ar
    34   20   21 ar
    35   20   37 1
    36   21   22 ar
    37   21   38 1
    38   22   23 ar
    39   22   39 1
    40   23   24 ar
    41   23   40 1
    42   24   25 1
    43   25   41 1
@<TRIPOS>MOLECULE
ZINC02241203
   41    43     0     0     0
SMALL
USER_CHARGES

@<TRIPOS>ATOM
      1 C1          4.7066   15.1896    1.1994 C.3       1 <0>        -0.2074
      2 C2          4.4757   13.6913    0.9927 C.3       1 <0>        -0.1158
      3 C3          5.7948   12.9405    1.1861 C.3       1 <0>        -0.2105
      4 C4          3.4490   13.1884    2.0095 C.3       1 <0>        -0.0656
      5 C5          3.1298   11.7428    1.7282 C.2       1 <0>        -0.2002
      6 N1          3.6994   10.6451    2.1849 N.2       1 <0>        -0.0618
      7 N2          3.3079    9.4948    1.8470 N.2       1 <0>        -0.0822
      8 C6          2.2958    9.3186    1.0087 C.2       1 <0>        -0.0731
      9 S1          1.8737   11.0260    0.6726 S.3       1 <0>         0.1831
     10 N3          1.7291    8.1455    0.5249 N.am      1 <0>        -0.2797
     11 C7          2.2179    6.9510    0.9132 C.2       1 <0>         0.3609
     12 O1          3.1544    6.8998    1.6867 O.2       1 <0>        -0.2613
     13 C8          1.6157    5.7042    0.3991 C.2       1 <0>        -0.1957
     14 C9          2.0186    4.3883    0.7149 C.2       1 <0>        -0.1454
     15 C10         1.1794    3.5715    0.0095 C.2       1 <0>        -0.0729
     16 N4          0.3320    4.3827   -0.6859 N.2       1 <0>        -0.0664
     17 H1          0.1196    6.3945   -0.8371 H         1 <0>         0.2790
     18 N5          0.6051    5.6141   -0.4430 N.pl3     1 <0>        -0.0590
     19 C11         1.1887    2.0921    0.0019 C.ar      1 <0>        -0.0299
     20 C12         2.3987    1.3990   -0.0138 C.ar      1 <0>        -0.0969
     21 C13         2.4014    0.0193   -0.0217 C.ar      1 <0>        -0.1395
     22 C14         1.2073   -0.6804   -0.0136 C.ar      1 <0>        -0.1085
     23 C15         0.0021   -0.0041    0.0020 C.ar      1 <0>        -0.1569
     24 C16        -0.0167    1.3812    0.0096 C.ar      1 <0>         0.0957
     25 O2         -1.2008    2.0470    0.0189 O.3       1 <0>        -0.2787
     26 H2          5.0794   15.3640    2.2087 H         1 <0>         0.0778
     27 H3          5.4382   15.5477    0.4749 H         1 <0>         0.0817
     28 H4          3.7670   15.7244    1.0616 H         1 <0>         0.0718
     29 H5          4.1030   13.5169   -0.0167 H         1 <0>         0.0930
     30 H6          5.6304   11.8731    1.0389 H         1 <0>         0.0912
     31 H7          6.5263   13.2988    0.4617 H         1 <0>         0.0748
     32 H8          6.1675   13.1149    2.1955 H         1 <0>         0.0805
     33 H9          2.5390   13.7833    1.9314 H         1 <0>         0.1002
     34 H10         3.8584   13.2811    3.0154 H         1 <0>         0.1221
     35 H11         0.9819    8.1864   -0.0922 H         1 <0>         0.2378
     36 H12         2.8202    4.0901    1.3743 H         1 <0>         0.1817
     37 H13         3.3325    1.9416   -0.0198 H         1 <0>         0.1394
     38 H14         3.3389   -0.5167   -0.0346 H         1 <0>         0.1345
     39 H15         1.2173   -1.7603   -0.0198 H         1 <0>         0.1332
     40 H16        -0.9262   -0.5561    0.0079 H         1 <0>         0.1419
     41 H17        -1.5394    2.2350    0.9049 H         1 <0>         0.2271
@<TRIPOS>BOND
     1    1    2 1
     2    1   26 1
     3    1   27 1
     4    1   28 1
     5    2    3 1
     6    2    4 1
     7    2   29 1
     8    3   30 1
     9    3   31 1
    10    3   32 1
    11    4    5 1
    12    4   33 1
    13    4   34 1
    14    5    9 1
    15    5    6 2
    16    6    7 1
    17    7    8 2
    18    8    9 1
    19    8   10 1
    20   10   11 am
    21   10   35 1
    22   11   12 2
    23   11   13 1
    24   13   14 2
    25   13   18 1
    26   14   36 1
    27   14   15 1
    28   15   19 1
    29   15   16 2
    30   16   18 1
    31   17   18 1
    32   19   24 ar
    33   19   20 ar
    34   20   21 ar
    35   20   37 1
    36   21   22 ar
    37   21   38 1
    38   22   23 ar
    39   22   39 1
    40   23   24 ar
    41   23   40 1
    42   24   25 1
    43   25   41 1
@<TRIPOS>MOLECULE
ZINC02241203
   41    43     0     0     0
SMALL
USER_CHARGES

@<TRIPOS>ATOM
      1 C1          4.7066   15.1896    1.1994 C.3       1 <0>        -0.2074
      2 C2          4.4757   13.6913    0.9927 C.3       1 <0>        -0.1158
      3 C3          5.7948   12.9405    1.1861 C.3       1 <0>        -0.2105
      4 C4          3.4490   13.1884    2.0095 C.3       1 <0>        -0.0656
      5 C5          3.1298   11.7428    1.7282 C.2       1 <0>        -0.2002
      6 N1          3.6994   10.6451    2.1849 N.2       1 <0>        -0.0618
      7 N2          3.3079    9.4948    1.8470 N.2       1 <0>        -0.0822
      8 C6          2.2958    9.3186    1.0087 C.2       1 <0>        -0.0731
      9 S1          1.8737   11.0260    0.6726 S.3       1 <0>         0.1831
     10 N3          1.7291    8.1455    0.5249 N.am      1 <0>        -0.2797
     11 C7          2.2179    6.9510    0.9132 C.2       1 <0>         0.3609
     12 O1          3.1544    6.8998    1.6867 O.2       1 <0>        -0.2613
     13 C8          1.6157    5.7042    0.3991 C.2       1 <0>        -0.1957
     14 C9          2.0186    4.3883    0.7149 C.2       1 <0>        -0.1454
     15 C10         1.1794    3.5715    0.0095 C.2       1 <0>        -0.0729
     16 N4          0.3320    4.3827   -0.6859 N.2       1 <0>        -0.0664
     17 H1          0.1196    6.3945   -0.8371 H         1 <0>         0.2790
     18 N5          0.6051    5.6141   -0.4430 N.pl3     1 <0>        -0.0590
     19 C11         1.1887    2.0921    0.0019 C.ar      1 <0>        -0.0299
     20 C12         2.3987    1.3990   -0.0138 C.ar      1 <0>        -0.0969
     21 C13         2.4014    0.0193   -0.0217 C.ar      1 <0>        -0.1395
     22 C14         1.2073   -0.6804   -0.0136 C.ar      1 <0>        -0.1085
     23 C15         0.0021   -0.0041    0.0020 C.ar      1 <0>        -0.1569
     24 C16        -0.0167    1.3812    0.0096 C.ar      1 <0>         0.0957
     25 O2         -1.2008    2.0470    0.0189 O.3       1 <0>        -0.2787
     26 H2          5.0794   15.3640    2.2087 H         1 <0>         0.0778
     27 H3          5.4382   15.5477    0.4749 H         1 <0>         0.0817
     28 H4          3.7670   15.7244    1.0616 H         1 <0>         0.0718
     29 H5          4.1030   13.5169   -0.0167 H         1 <0>         0.0930
     30 H6          5.6304   11.8731    1.0389 H         1 <0>         0.0912
     31 H7          6.5263   13.2988    0.4617 H         1 <0>         0.0748
     32 H8          6.1675   13.1149    2.1955 H         1 <0>         0.0805
     33 H9          2.5390   13.7833    1.9314 H         1 <0>         0.1002
     34 H10         3.8584   13.2811    3.0154 H         1 <0>         0.1221
     35 H11         0.9819    8.1864   -0.0922 H         1 <0>         0.2378
     36 H12         2.8202    4.0901    1.3743 H         1 <0>         0.1817
     37 H13         3.3325    1.9416   -0.0198 H         1 <0>         0.1394
     38 H14         3.3389   -0.5167   -0.0346 H         1 <0>         0.1345
     39 H15         1.2173   -1.7603   -0.0198 H         1 <0>         0.1332
     40 H16        -0.9262   -0.5561    0.0079 H         1 <0>         0.1419
     41 H17        -1.5394    2.2350    0.9049 H         1 <0>         0.2271
@<TRIPOS>BOND
     1    1    2 1
     2    1   26 1
     3    1   27 1
     4    1   28 1
     5    2    3 1
     6    2    4 1
     7    2   29 1
     8    3   30 1
     9    3   31 1
    10    3   32 1
    11    4    5 1
    12    4   33 1
    13    4   34 1
    14    5    9 1
    15    5    6 2
    16    6    7 1
    17    7    8 2
    18    8    9 1
    19    8   10 1
    20   10   11 am
    21   10   35 1
    22   11   12 2
    23   11   13 1
    24   13   14 2
    25   13   18 1
    26   14   36 1
    27   14   15 1
    28   15   19 1
    29   15   16 2
    30   16   18 1
    31   17   18 1
    32   19   24 ar
    33   19   20 ar
    34   20   21 ar
    35   20   37 1
    36   21   22 ar
    37   21   38 1
    38   22   23 ar
    39   22   39 1
    40   23   24 ar
    41   23   40 1
    42   24   25 1
    43   25   41 1
@<TRIPOS>MOLECULE
ZINC02241863
   43    46     0     0     0
SMALL
USER_CHARGES

@<TRIPOS>ATOM
      1 C1         -7.4341   -3.3387    4.1036 C.3       1 <0>        -0.1720
      2 C2         -6.0611   -3.9018    3.8414 C.ar      1 <0>        -0.1110
      3 C3         -5.8610   -5.2750    3.8707 C.ar      1 <0>        -0.0709
      4 C4         -4.6141   -5.8115    3.6343 C.ar      1 <0>        -0.1485
      5 C5         -3.5380   -4.9712    3.3624 C.ar      1 <0>         0.1164
      6 C6         -3.7504   -3.5821    3.3349 C.ar      1 <0>        -0.2040
      7 C7         -5.0186   -3.0571    3.5768 C.ar      1 <0>        -0.0387
      8 C8         -2.5967   -2.7082    3.0448 C.2       1 <0>         0.3275
      9 O1         -2.7068   -1.4955    3.0052 O.2       1 <0>        -0.2907
     10 C9         -1.3118   -3.3724    2.8071 C.2       1 <0>        -0.2648
     11 C10        -1.2310   -4.7243    2.8605 C.2       1 <0>         0.0589
     12 O2         -2.3145   -5.4792    3.1291 O.3       1 <0>        -0.0938
     13 C11         0.1728   -5.1197    2.5840 C.2       1 <0>         0.3605
     14 O3          0.5801   -6.2640    2.5572 O.2       1 <0>        -0.3017
     15 N1          0.9285   -4.0293    2.3673 N.am      1 <0>        -0.3353
     16 C12         0.0644   -2.8488    2.4886 C.3       1 <0>         0.1268
     17 H1          0.4171   -2.2053    3.2946 H         1 <0>         0.1219
     18 C13         0.0417   -2.0864    1.1888 C.ar      1 <0>        -0.0862
     19 C14         0.0401   -2.7702   -0.0132 C.ar      1 <0>        -0.1223
     20 C15         0.0189   -2.0738   -1.2072 C.ar      1 <0>        -0.1176
     21 C16        -0.0057   -0.6923   -1.2023 C.ar      1 <0>        -0.1464
     22 C17         0.0021   -0.0041    0.0020 C.ar      1 <0>         0.0708
     23 C18         0.0230   -0.7054    1.1991 C.ar      1 <0>        -0.1259
     24 O4         -0.0164    1.3548    0.0095 O.3       1 <0>        -0.2866
     25 C19         2.3615   -4.0207    2.0631 C.3       1 <0>         0.0265
     26 C20         3.1591   -3.9439    3.3666 C.3       1 <0>        -0.0262
     27 O5          2.9416   -5.1328    4.1289 O.3       1 <0>        -0.3365
     28 H2         -7.5519   -3.1505    5.1708 H         1 <0>         0.0887
     29 H3         -7.5548   -2.4049    3.5545 H         1 <0>         0.0873
     30 H4         -8.1887   -4.0535    3.7753 H         1 <0>         0.0827
     31 H5         -6.6928   -5.9309    4.0809 H         1 <0>         0.1415
     32 H6         -4.4718   -6.8817    3.6604 H         1 <0>         0.1531
     33 H7         -5.1774   -1.9891    3.5547 H         1 <0>         0.1590
     34 H8          0.0552   -3.8501   -0.0191 H         1 <0>         0.1379
     35 H9          0.0173   -2.6101   -2.1447 H         1 <0>         0.1355
     36 H10        -0.0264   -0.1488   -2.1353 H         1 <0>         0.1408
     37 H11         0.0249   -0.1718    2.1381 H         1 <0>         0.1480
     38 H12         0.8616    1.7601    0.0033 H         1 <0>         0.2249
     39 H13         2.6252   -4.9336    1.5292 H         1 <0>         0.1247
     40 H14         2.5960   -3.1560    1.4423 H         1 <0>         0.1050
     41 H15         4.2205   -3.8479    3.1380 H         1 <0>         0.0671
     42 H16         2.8317   -3.0781    3.9423 H         1 <0>         0.0623
     43 H17         3.4177   -5.1532    4.9703 H         1 <0>         0.2115
@<TRIPOS>BOND
     1    1    2 1
     2    1   28 1
     3    1   29 1
     4    1   30 1
     5    2    7 ar
     6    2    3 ar
     7    3    4 ar
     8    3   31 1
     9    4    5 ar
    10    4   32 1
    11    5   12 1
    12    5    6 ar
    13    6    7 ar
    14    6    8 1
    15    7   33 1
    16    8    9 2
    17    8   10 1
    18   10   16 1
    19   10   11 2
    20   11   12 1
    21   11   13 1
    22   13   14 2
    23   13   15 am
    24   15   16 1
    25   15   25 1
    26   16   17 1
    27   16   18 1
    28   18   23 ar
    29   18   19 ar
    30   19   20 ar
    31   19   34 1
    32   20   21 ar
    33   20   35 1
    34   21   22 ar
    35   21   36 1
    36   22   23 ar
    37   22   24 1
    38   23   37 1
    39   24   38 1
    40   25   26 1
    41   25   39 1
    42   25   40 1
    43   26   27 1
    44   26   41 1
    45   26   42 1
    46   27   43 1
@<TRIPOS>MOLECULE
ZINC02241864
   43    46     0     0     0
SMALL
USER_CHARGES

@<TRIPOS>ATOM
      1 C1          1.2253   -2.1708   -0.0213 C.3       1 <0>        -0.1720
      2 C2          1.1998   -0.6640   -0.0130 C.ar      1 <0>        -0.1112
      3 C3          2.3919    0.0467   -0.0210 C.ar      1 <0>        -0.0708
      4 C4          2.3921    1.4245   -0.0136 C.ar      1 <0>        -0.1494
      5 C5          1.1851    2.1181    0.0021 C.ar      1 <0>         0.1170
      6 C6         -0.0168    1.3896    0.0097 C.ar      1 <0>        -0.2044
      7 C7          0.0021   -0.0041    0.0020 C.ar      1 <0>        -0.0382
      8 C8         -1.2861    2.1429    0.0320 C.2       1 <0>         0.3262
      9 O1         -2.3653    1.5776    0.0434 O.2       1 <0>        -0.2863
     10 C9         -1.1831    3.6050    0.0354 C.2       1 <0>        -0.2545
     11 C10         0.0368    4.1956    0.0268 C.2       1 <0>         0.0493
     12 O2          1.1679    3.4631    0.0107 O.3       1 <0>        -0.0960
     13 C11        -0.1568    5.6673    0.0381 C.2       1 <0>         0.3556
     14 O3          0.7406    6.4863    0.0348 O.2       1 <0>        -0.3309
     15 N1         -1.4678    5.9634    0.0532 N.am      1 <0>        -0.3269
     16 C12        -2.2168    4.7008    0.0528 C.3       1 <0>         0.1266
     17 H1         -2.8467    4.6383   -0.8345 H         1 <0>         0.1432
     18 C13        -3.0614    4.5979    1.2966 C.ar      1 <0>        -0.0806
     19 C14        -2.5564    5.0230    2.5118 C.ar      1 <0>        -0.1251
     20 C15        -3.3287    4.9300    3.6546 C.ar      1 <0>        -0.1184
     21 C16        -4.6077    4.4118    3.5851 C.ar      1 <0>        -0.1475
     22 C17        -5.1167    3.9851    2.3674 C.ar      1 <0>         0.0708
     23 C18        -4.3414    4.0845    1.2209 C.ar      1 <0>        -0.1205
     24 O4         -6.3742    3.4747    2.2966 O.3       1 <0>        -0.2875
     25 C19        -2.0472    7.3089    0.0668 C.3       1 <0>         0.0261
     26 C20        -2.2631    7.7858   -1.3708 C.3       1 <0>        -0.0276
     27 O5         -3.2413    6.9594   -2.0050 O.3       1 <0>        -0.3586
     28 H2          1.2216   -2.5285   -1.0509 H         1 <0>         0.0887
     29 H3          2.1262   -2.5217    0.4821 H         1 <0>         0.0826
     30 H4          0.3466   -2.5519    0.4989 H         1 <0>         0.0875
     31 H5          3.3309   -0.4868   -0.0328 H         1 <0>         0.1413
     32 H6          3.3269    1.9654   -0.0203 H         1 <0>         0.1524
     33 H7         -0.9240   -0.5597    0.0075 H         1 <0>         0.1594
     34 H8         -1.5568    5.4280    2.5681 H         1 <0>         0.1346
     35 H9         -2.9319    5.2623    4.6025 H         1 <0>         0.1340
     36 H10        -5.2106    4.3393    4.4782 H         1 <0>         0.1398
     37 H11        -4.7370    3.7568    0.2709 H         1 <0>         0.1503
     38 H12        -7.0584    4.1365    2.1263 H         1 <0>         0.2253
     39 H13        -3.0032    7.2876    0.5900 H         1 <0>         0.1123
     40 H14        -1.3684    7.9916    0.5780 H         1 <0>         0.1193
     41 H15        -2.6105    8.8190   -1.3626 H         1 <0>         0.0695
     42 H16        -1.3234    7.7228   -1.9195 H         1 <0>         0.0792
     43 H17        -3.4290    7.2046   -2.9213 H         1 <0>         0.2155
@<TRIPOS>BOND
     1    1    2 1
     2    1   28 1
     3    1   29 1
     4    1   30 1
     5    2    7 ar
     6    2    3 ar
     7    3    4 ar
     8    3   31 1
     9    4    5 ar
    10    4   32 1
    11    5   12 1
    12    5    6 ar
    13    6    7 ar
    14    6    8 1
    15    7   33 1
    16    8    9 2
    17    8   10 1
    18   10   16 1
    19   10   11 2
    20   11   12 1
    21   11   13 1
    22   13   14 2
    23   13   15 am
    24   15   16 1
    25   15   25 1
    26   16   17 1
    27   16   18 1
    28   18   23 ar
    29   18   19 ar
    30   19   20 ar
    31   19   34 1
    32   20   21 ar
    33   20   35 1
    34   21   22 ar
    35   21   36 1
    36   22   23 ar
    37   22   24 1
    38   23   37 1
    39   24   38 1
    40   25   26 1
    41   25   39 1
    42   25   40 1
    43   26   27 1
    44   26   41 1
    45   26   42 1
    46   27   43 1
@<TRIPOS>MOLECULE
ZINC02242379
   46    49     0     0     0
SMALL
USER_CHARGES

@<TRIPOS>ATOM
      1 C1         -2.8077    9.2592   -4.9192 C.3       1 <0>        -0.0626
      2 O1         -1.4609    9.1845   -4.4473 O.3       1 <0>        -0.2656
      3 C2         -0.7231    8.0771   -4.9683 C.3       1 <0>        -0.0382
      4 C3          0.6590    8.0318   -4.3136 C.3       1 <0>         0.0226
      5 N1          0.5121    7.7648   -2.8806 N.am      1 <0>        -0.3444
      6 C4          0.3754    6.4371   -2.2706 C.3       1 <0>         0.1561
      7 H1         -0.5190    5.9418   -2.6486 H         1 <0>         0.1091
      8 C5          0.2586    6.6624   -0.7879 C.2       1 <0>        -0.2162
      9 C6          0.1069    6.1181    0.4473 C.2       1 <0>        -0.0060
     10 N2          0.0889    7.1570    1.3335 N.pl3     1 <0>        -0.1018
     11 H2         -0.0077    7.0645    2.3245 H         1 <0>         0.2954
     12 N3          0.2145    8.2714    0.7051 N.2       1 <0>        -0.0105
     13 C7          0.3207    8.0607   -0.5918 C.2       1 <0>        -0.1701
     14 C8          0.4802    8.6962   -1.9122 C.2       1 <0>         0.3994
     15 O2          0.5706    9.8940   -2.0989 O.2       1 <0>        -0.3201
     16 C9         -0.0097    4.6791    0.7704 C.ar      1 <0>        -0.0673
     17 C10        -1.2153    4.1628    1.2443 C.ar      1 <0>        -0.0986
     18 C11        -1.3197    2.8190    1.5395 C.ar      1 <0>        -0.1451
     19 C12        -0.2290    1.9826    1.3770 C.ar      1 <0>        -0.1027
     20 C13         0.9708    2.4833    0.9080 C.ar      1 <0>        -0.1625
     21 C14         1.0894    3.8294    0.6024 C.ar      1 <0>         0.1089
     22 O3          2.2681    4.3224    0.1409 O.3       1 <0>        -0.2886
     23 C15         1.5939    5.6023   -2.5696 C.ar      1 <0>        -0.0896
     24 C16         1.4480    4.2978   -3.0047 C.ar      1 <0>        -0.1490
     25 C17         2.5638    3.5295   -3.2799 C.ar      1 <0>        -0.1263
     26 C18         3.8281    4.0635   -3.1207 C.ar      1 <0>        -0.1565
     27 C19         3.9772    5.3719   -2.6849 C.ar      1 <0>         0.0732
     28 C20         2.8556    6.1427   -2.4144 C.ar      1 <0>        -0.1281
     29 O4          5.2197    5.8994   -2.5271 O.3       1 <0>        -0.2844
     30 H3         -2.8105    9.2736   -6.0091 H         1 <0>         0.0507
     31 H4         -3.3651    8.3917   -4.5659 H         1 <0>         0.0520
     32 H5         -3.2747   10.1692   -4.5426 H         1 <0>         0.1054
     33 H6         -0.6108    8.1903   -6.0465 H         1 <0>         0.0690
     34 H7         -1.2572    7.1515   -4.7538 H         1 <0>         0.0630
     35 H8          1.1597    8.9897   -4.4552 H         1 <0>         0.1270
     36 H9          1.2523    7.2405   -4.7717 H         1 <0>         0.0957
     37 H10        -2.0675    4.8131    1.3759 H         1 <0>         0.1381
     38 H11        -2.2550    2.4190    1.9022 H         1 <0>         0.1352
     39 H12        -0.3172    0.9326    1.6137 H         1 <0>         0.1346
     40 H13         1.8167    1.8243    0.7793 H         1 <0>         0.1449
     41 H14         2.3856    4.2309   -0.8146 H         1 <0>         0.2441
     42 H15         0.4605    3.8784   -3.1294 H         1 <0>         0.1368
     43 H16         2.4472    2.5108   -3.6192 H         1 <0>         0.1375
     44 H17         4.6995    3.4629   -3.3358 H         1 <0>         0.1448
     45 H18         2.9690    7.1630   -2.0789 H         1 <0>         0.1606
     46 H19         5.5666    6.3325   -3.3190 H         1 <0>         0.2304
@<TRIPOS>BOND
     1    1    2 1
     2    1   30 1
     3    1   31 1
     4    1   32 1
     5    2    3 1
     6    3    4 1
     7    3   33 1
     8    3   34 1
     9    4    5 1
    10    4   35 1
    11    4   36 1
    12    5   14 am
    13    5    6 1
    14    6    7 1
    15    6    8 1
    16    6   23 1
    17    8   13 1
    18    8    9 2
    19    9   10 1
    20    9   16 1
    21   10   11 1
    22   10   12 1
    23   12   13 2
    24   13   14 1
    25   14   15 2
    26   16   21 ar
    27   16   17 ar
    28   17   18 ar
    29   17   37 1
    30   18   19 ar
    31   18   38 1
    32   19   20 ar
    33   19   39 1
    34   20   21 ar
    35   20   40 1
    36   21   22 1
    37   22   41 1
    38   23   28 ar
    39   23   24 ar
    40   24   25 ar
    41   24   42 1
    42   25   26 ar
    43   25   43 1
    44   26   27 ar
    45   26   44 1
    46   27   28 ar
    47   27   29 1
    48   28   45 1
    49   29   46 1
@<TRIPOS>MOLECULE
ZINC02242379
   46    49     0     0     0
SMALL
USER_CHARGES

@<TRIPOS>ATOM
      1 C1         -2.8358    9.2502   -4.9090 C.3       1 <0>        -0.0629
      2 O1         -1.4871    9.1796   -4.4418 O.3       1 <0>        -0.2685
      3 C2         -0.7478    8.0744   -4.9654 C.3       1 <0>        -0.0380
      4 C3          0.6367    8.0332   -4.3155 C.3       1 <0>         0.0203
      5 N1          0.4956    7.7658   -2.8820 N.am      1 <0>        -0.3360
      6 C4          0.3650    6.4377   -2.2715 C.3       1 <0>         0.1465
      7 H1         -0.5293    5.9398   -2.6463 H         1 <0>         0.1129
      8 C5          0.2527    6.6628   -0.7884 C.2       1 <0>        -0.1929
      9 C6          0.1197    6.1174    0.4485 C.2       1 <0>        -0.0100
     10 N2          0.1089    7.1559    1.3353 N.2       1 <0>        -0.0891
     11 H2          0.2511    9.1708    1.1411 H         1 <0>         0.2945
     12 N3          0.2268    8.2707    0.7062 N.pl3     1 <0>        -0.0019
     13 C7          0.3113    8.0612   -0.5926 C.2       1 <0>        -0.2013
     14 C8          0.4643    8.6972   -1.9135 C.2       1 <0>         0.3906
     15 O2          0.5505    9.8952   -2.1006 O.2       1 <0>        -0.3409
     16 C9          0.0082    4.6781    0.7721 C.ar      1 <0>        -0.0343
     17 C10        -1.1920    4.1599    1.2575 C.ar      1 <0>        -0.0896
     18 C11        -1.2917    2.8159    1.5531 C.ar      1 <0>        -0.1469
     19 C12        -0.2015    1.9810    1.3796 C.ar      1 <0>        -0.1085
     20 C13         0.9930    2.4836    0.8992 C.ar      1 <0>        -0.1638
     21 C14         1.1068    3.8299    0.5930 C.ar      1 <0>         0.1013
     22 O3          2.2802    4.3248    0.1203 O.3       1 <0>        -0.2883
     23 C15         1.5849    5.6066   -2.5747 C.ar      1 <0>        -0.0883
     24 C16         1.4414    4.3016   -3.0093 C.ar      1 <0>        -0.1459
     25 C17         2.5585    3.5366   -3.2883 C.ar      1 <0>        -0.1245
     26 C18         3.8217    4.0744   -3.1336 C.ar      1 <0>        -0.1544
     27 C19         3.9684    5.3833   -2.6983 C.ar      1 <0>         0.0741
     28 C20         2.8455    6.1507   -2.4239 C.ar      1 <0>        -0.1285
     29 O4          5.2099    5.9145   -2.5449 O.3       1 <0>        -0.2840
     30 H3         -2.8424    9.2646   -5.9989 H         1 <0>         0.0521
     31 H4         -3.3893    8.3811   -4.5538 H         1 <0>         0.0533
     32 H5         -3.3042   10.1589   -4.5309 H         1 <0>         0.1046
     33 H6         -0.6396    8.1878   -6.0440 H         1 <0>         0.0705
     34 H7         -1.2784    7.1472   -4.7490 H         1 <0>         0.0646
     35 H8          1.1340    8.9926   -4.4589 H         1 <0>         0.1264
     36 H9          1.2307    7.2437   -4.7757 H         1 <0>         0.0985
     37 H10        -2.0438    4.8090    1.3976 H         1 <0>         0.1400
     38 H11        -2.2229    2.4144    1.9247 H         1 <0>         0.1321
     39 H12        -0.2860    0.9308    1.6167 H         1 <0>         0.1310
     40 H13         1.8385    1.8258    0.7619 H         1 <0>         0.1410
     41 H14         2.3886    4.2338   -0.8364 H         1 <0>         0.2368
     42 H15         0.4547    3.8793   -3.1305 H         1 <0>         0.1377
     43 H16         2.4437    2.5176   -3.6272 H         1 <0>         0.1385
     44 H17         4.6942    3.4764   -3.3517 H         1 <0>         0.1453
     45 H18         2.9570    7.1714   -2.0889 H         1 <0>         0.1565
     46 H19         5.5528    6.3486   -3.3380 H         1 <0>         0.2294
@<TRIPOS>BOND
     1    1    2 1
     2    1   30 1
     3    1   31 1
     4    1   32 1
     5    2    3 1
     6    3    4 1
     7    3   33 1
     8    3   34 1
     9    4    5 1
    10    4   35 1
    11    4   36 1
    12    5   14 am
    13    5    6 1
    14    6    7 1
    15    6    8 1
    16    6   23 1
    17    8    9 1
    18    8   13 2
    19    9   16 1
    20    9   10 2
    21   10   12 1
    22   11   12 1
    23   12   13 1
    24   13   14 1
    25   14   15 2
    26   16   21 ar
    27   16   17 ar
    28   17   18 ar
    29   17   37 1
    30   18   19 ar
    31   18   38 1
    32   19   20 ar
    33   19   39 1
    34   20   21 ar
    35   20   40 1
    36   21   22 1
    37   22   41 1
    38   23   28 ar
    39   23   24 ar
    40   24   25 ar
    41   24   42 1
    42   25   26 ar
    43   25   43 1
    44   26   27 ar
    45   26   44 1
    46   27   28 ar
    47   27   29 1
    48   28   45 1
    49   29   46 1
@<TRIPOS>MOLECULE
ZINC02242379
   46    49     0     0     0
SMALL
USER_CHARGES

@<TRIPOS>ATOM
      1 C1         -2.8358    9.2502   -4.9090 C.3       1 <0>        -0.0629
      2 O1         -1.4871    9.1796   -4.4418 O.3       1 <0>        -0.2685
      3 C2         -0.7478    8.0744   -4.9654 C.3       1 <0>        -0.0380
      4 C3          0.6367    8.0332   -4.3155 C.3       1 <0>         0.0203
      5 N1          0.4956    7.7658   -2.8820 N.am      1 <0>        -0.3360
      6 C4          0.3650    6.4377   -2.2715 C.3       1 <0>         0.1465
      7 H1         -0.5293    5.9398   -2.6463 H         1 <0>         0.1129
      8 C5          0.2527    6.6628   -0.7884 C.2       1 <0>        -0.1929
      9 C6          0.1197    6.1174    0.4485 C.2       1 <0>        -0.0100
     10 N2          0.1089    7.1559    1.3353 N.2       1 <0>        -0.0891
     11 H2          0.2511    9.1708    1.1411 H         1 <0>         0.2945
     12 N3          0.2268    8.2707    0.7062 N.pl3     1 <0>        -0.0019
     13 C7          0.3113    8.0612   -0.5926 C.2       1 <0>        -0.2013
     14 C8          0.4643    8.6972   -1.9135 C.2       1 <0>         0.3906
     15 O2          0.5505    9.8952   -2.1006 O.2       1 <0>        -0.3409
     16 C9          0.0082    4.6781    0.7721 C.ar      1 <0>        -0.0343
     17 C10        -1.1920    4.1599    1.2575 C.ar      1 <0>        -0.0896
     18 C11        -1.2917    2.8159    1.5531 C.ar      1 <0>        -0.1469
     19 C12        -0.2015    1.9810    1.3796 C.ar      1 <0>        -0.1085
     20 C13         0.9930    2.4836    0.8992 C.ar      1 <0>        -0.1638
     21 C14         1.1068    3.8299    0.5930 C.ar      1 <0>         0.1013
     22 O3          2.2802    4.3248    0.1203 O.3       1 <0>        -0.2883
     23 C15         1.5849    5.6066   -2.5747 C.ar      1 <0>        -0.0883
     24 C16         1.4414    4.3016   -3.0093 C.ar      1 <0>        -0.1459
     25 C17         2.5585    3.5366   -3.2883 C.ar      1 <0>        -0.1245
     26 C18         3.8217    4.0744   -3.1336 C.ar      1 <0>        -0.1544
     27 C19         3.9684    5.3833   -2.6983 C.ar      1 <0>         0.0741
     28 C20         2.8455    6.1507   -2.4239 C.ar      1 <0>        -0.1285
     29 O4          5.2099    5.9145   -2.5449 O.3       1 <0>        -0.2840
     30 H3         -2.8424    9.2646   -5.9989 H         1 <0>         0.0521
     31 H4         -3.3893    8.3811   -4.5538 H         1 <0>         0.0533
     32 H5         -3.3042   10.1589   -4.5309 H         1 <0>         0.1046
     33 H6         -0.6396    8.1878   -6.0440 H         1 <0>         0.0705
     34 H7         -1.2784    7.1472   -4.7490 H         1 <0>         0.0646
     35 H8          1.1340    8.9926   -4.4589 H         1 <0>         0.1264
     36 H9          1.2307    7.2437   -4.7757 H         1 <0>         0.0985
     37 H10        -2.0438    4.8090    1.3976 H         1 <0>         0.1400
     38 H11        -2.2229    2.4144    1.9247 H         1 <0>         0.1321
     39 H12        -0.2860    0.9308    1.6167 H         1 <0>         0.1310
     40 H13         1.8385    1.8258    0.7619 H         1 <0>         0.1410
     41 H14         2.3886    4.2338   -0.8364 H         1 <0>         0.2368
     42 H15         0.4547    3.8793   -3.1305 H         1 <0>         0.1377
     43 H16         2.4437    2.5176   -3.6272 H         1 <0>         0.1385
     44 H17         4.6942    3.4764   -3.3517 H         1 <0>         0.1453
     45 H18         2.9570    7.1714   -2.0889 H         1 <0>         0.1565
     46 H19         5.5528    6.3486   -3.3380 H         1 <0>         0.2294
@<TRIPOS>BOND
     1    1    2 1
     2    1   30 1
     3    1   31 1
     4    1   32 1
     5    2    3 1
     6    3    4 1
     7    3   33 1
     8    3   34 1
     9    4    5 1
    10    4   35 1
    11    4   36 1
    12    5   14 am
    13    5    6 1
    14    6    7 1
    15    6    8 1
    16    6   23 1
    17    8    9 1
    18    8   13 2
    19    9   16 1
    20    9   10 2
    21   10   12 1
    22   11   12 1
    23   12   13 1
    24   13   14 1
    25   14   15 2
    26   16   21 ar
    27   16   17 ar
    28   17   18 ar
    29   17   37 1
    30   18   19 ar
    31   18   38 1
    32   19   20 ar
    33   19   39 1
    34   20   21 ar
    35   20   40 1
    36   21   22 1
    37   22   41 1
    38   23   28 ar
    39   23   24 ar
    40   24   25 ar
    41   24   42 1
    42   25   26 ar
    43   25   43 1
    44   26   27 ar
    45   26   44 1
    46   27   28 ar
    47   27   29 1
    48   28   45 1
    49   29   46 1
@<TRIPOS>MOLECULE
ZINC02242380
   46    49     0     0     0
SMALL
USER_CHARGES

@<TRIPOS>ATOM
      1 C1         -0.0127    1.0858    0.0080 C.3       1 <0>        -0.0635
      2 O1         -0.6816    1.5467    1.1837 O.3       1 <0>        -0.2680
      3 C2         -0.7564    2.9698    1.2898 C.3       1 <0>        -0.0561
      4 C3         -1.4885    3.3473    2.5791 C.3       1 <0>         0.0280
      5 N1         -0.6986    2.9135    3.7342 N.am      1 <0>        -0.3437
      6 C4          0.3236    3.7149    4.4172 C.3       1 <0>         0.1525
      7 H1         -0.1221    4.6231    4.8228 H         1 <0>         0.1203
      8 C5          0.8571    2.8585    5.5329 C.2       1 <0>        -0.1856
      9 C6          1.7157    2.7399    6.5788 C.2       1 <0>        -0.0319
     10 N2          1.5238    1.4939    7.1036 N.pl3     1 <0>        -0.1116
     11 H2          2.0178    1.1191    7.8881 H         1 <0>         0.2913
     12 N3          0.6140    0.8741    6.4397 N.2       1 <0>        -0.0124
     13 C7          0.1549    1.6339    5.4654 C.2       1 <0>        -0.1739
     14 C8         -0.7971    1.7195    4.3432 C.2       1 <0>         0.3968
     15 O2         -1.5615    0.8337    4.0132 O.2       1 <0>        -0.3192
     16 C9          2.6730    3.7619    7.0562 C.ar      1 <0>        -0.0556
     17 C10         4.0454    3.5276    6.9773 C.ar      1 <0>        -0.0987
     18 C11         4.9336    4.4844    7.4236 C.ar      1 <0>        -0.1405
     19 C12         4.4679    5.6765    7.9503 C.ar      1 <0>        -0.1067
     20 C13         3.1099    5.9198    8.0330 C.ar      1 <0>        -0.1556
     21 C14         2.2059    4.9708    7.5840 C.ar      1 <0>         0.0935
     22 O3          0.8710    5.2109    7.6604 O.3       1 <0>        -0.2858
     23 C15         1.4315    4.0666    3.4581 C.ar      1 <0>        -0.0849
     24 C16         1.8628    3.1367    2.5298 C.ar      1 <0>        -0.1179
     25 C17         2.8751    3.4582    1.6449 C.ar      1 <0>        -0.1275
     26 C18         3.4663    4.7061    1.6935 C.ar      1 <0>        -0.1498
     27 C19         3.0393    5.6386    2.6274 C.ar      1 <0>         0.0642
     28 C20         2.0193    5.3154    3.5107 C.ar      1 <0>        -0.1388
     29 O4          3.6195    6.8665    2.6775 O.3       1 <0>        -0.2913
     30 H3          0.0021   -0.0041    0.0020 H         1 <0>         0.1037
     31 H4          1.0099    1.4631    0.0003 H         1 <0>         0.0489
     32 H5         -0.5399    1.4469   -0.8751 H         1 <0>         0.0530
     33 H6          0.2508    3.3861    1.3087 H         1 <0>         0.0861
     34 H7         -1.2990    3.3699    0.4333 H         1 <0>         0.0682
     35 H8         -1.6240    4.4282    2.6168 H         1 <0>         0.0978
     36 H9         -2.4623    2.8581    2.6005 H         1 <0>         0.1224
     37 H10         4.4126    2.5985    6.5670 H         1 <0>         0.1406
     38 H11         5.9964    4.3022    7.3622 H         1 <0>         0.1364
     39 H12         5.1692    6.4206    8.2980 H         1 <0>         0.1362
     40 H13         2.7532    6.8525    8.4444 H         1 <0>         0.1455
     41 H14         0.4661    4.9211    8.4894 H         1 <0>         0.2337
     42 H15         1.4052    2.1591    2.4934 H         1 <0>         0.1568
     43 H16         3.2074    2.7317    0.9181 H         1 <0>         0.1334
     44 H17         4.2603    4.9551    1.0051 H         1 <0>         0.1385
     45 H18         1.6849    6.0398    4.2386 H         1 <0>         0.1455
     46 H19         4.3833    6.9168    3.2685 H         1 <0>         0.2259
@<TRIPOS>BOND
     1    1    2 1
     2    1   30 1
     3    1   31 1
     4    1   32 1
     5    2    3 1
     6    3    4 1
     7    3   33 1
     8    3   34 1
     9    4    5 1
    10    4   35 1
    11    4   36 1
    12    5   14 am
    13    5    6 1
    14    6    7 1
    15    6    8 1
    16    6   23 1
    17    8   13 1
    18    8    9 2
    19    9   10 1
    20    9   16 1
    21   10   11 1
    22   10   12 1
    23   12   13 2
    24   13   14 1
    25   14   15 2
    26   16   21 ar
    27   16   17 ar
    28   17   18 ar
    29   17   37 1
    30   18   19 ar
    31   18   38 1
    32   19   20 ar
    33   19   39 1
    34   20   21 ar
    35   20   40 1
    36   21   22 1
    37   22   41 1
    38   23   28 ar
    39   23   24 ar
    40   24   25 ar
    41   24   42 1
    42   25   26 ar
    43   25   43 1
    44   26   27 ar
    45   26   44 1
    46   27   28 ar
    47   27   29 1
    48   28   45 1
    49   29   46 1
@<TRIPOS>MOLECULE
ZINC02242380
   46    49     0     0     0
SMALL
USER_CHARGES

@<TRIPOS>ATOM
      1 C1         -0.0150    1.0864    0.0085 C.3       1 <0>        -0.0637
      2 O1         -0.6835    1.5473    1.1844 O.3       1 <0>        -0.2708
      3 C2         -0.7581    2.9704    1.2906 C.3       1 <0>        -0.0559
      4 C3         -1.4897    3.3479    2.5802 C.3       1 <0>         0.0257
      5 N1         -0.6995    2.9140    3.7350 N.am      1 <0>        -0.3350
      6 C4          0.3230    3.7152    4.4177 C.3       1 <0>         0.1437
      7 H1         -0.1224    4.6234    4.8235 H         1 <0>         0.1243
      8 C5          0.8568    2.8587    5.5332 C.2       1 <0>        -0.1686
      9 C6          1.7160    2.7397    6.5785 C.2       1 <0>        -0.0288
     10 N2          1.5243    1.4936    7.1032 N.2       1 <0>        -0.1031
     11 H2          0.2994   -0.0549    6.6345 H         1 <0>         0.2938
     12 N3          0.6143    0.8739    6.4394 N.pl3     1 <0>        -0.0044
     13 C7          0.1544    1.6342    5.4658 C.2       1 <0>        -0.2051
     14 C8         -0.7979    1.7199    4.3440 C.2       1 <0>         0.3882
     15 O2         -1.5626    0.8343    4.0142 O.2       1 <0>        -0.3404
     16 C9          2.6734    3.7617    7.0558 C.ar      1 <0>        -0.0250
     17 C10         4.0458    3.5274    6.9765 C.ar      1 <0>        -0.0876
     18 C11         4.9341    4.4841    7.4227 C.ar      1 <0>        -0.1432
     19 C12         4.4686    5.6761    7.9497 C.ar      1 <0>        -0.1120
     20 C13         3.1106    5.9194    8.0329 C.ar      1 <0>        -0.1573
     21 C14         2.2065    4.9705    7.5840 C.ar      1 <0>         0.0861
     22 O3          0.8716    5.2105    7.6608 O.3       1 <0>        -0.2916
     23 C15         1.4307    4.0668    3.4583 C.ar      1 <0>        -0.0833
     24 C16         1.8616    3.1369    2.5298 C.ar      1 <0>        -0.1200
     25 C17         2.8736    3.4583    1.6446 C.ar      1 <0>        -0.1270
     26 C18         3.4650    4.7061    1.6930 C.ar      1 <0>        -0.1490
     27 C19         3.0384    5.6386    2.6271 C.ar      1 <0>         0.0666
     28 C20         2.0187    5.3155    3.5107 C.ar      1 <0>        -0.1365
     29 O4          3.6188    6.8664    2.6771 O.3       1 <0>        -0.2916
     30 H3         -0.0004   -0.0035    0.0024 H         1 <0>         0.1026
     31 H4          1.0076    1.4635    0.0005 H         1 <0>         0.0502
     32 H5         -0.5424    1.4476   -0.8744 H         1 <0>         0.0542
     33 H6          0.2492    3.3866    1.3092 H         1 <0>         0.0881
     34 H7         -1.3009    3.3706    0.4343 H         1 <0>         0.0696
     35 H8         -1.6250    4.4288    2.6179 H         1 <0>         0.1003
     36 H9         -2.4636    2.8589    2.6018 H         1 <0>         0.1218
     37 H10         4.4129    2.5984    6.5659 H         1 <0>         0.1437
     38 H11         5.9969    4.3020    7.3609 H         1 <0>         0.1335
     39 H12         5.1700    6.4202    8.2973 H         1 <0>         0.1326
     40 H13         2.7540    6.8520    8.4445 H         1 <0>         0.1417
     41 H14         0.4669    4.9206    8.4899 H         1 <0>         0.2331
     42 H15         1.4038    2.1593    2.4935 H         1 <0>         0.1531
     43 H16         3.2056    2.7318    0.9176 H         1 <0>         0.1328
     44 H17         4.2588    4.9550    1.0044 H         1 <0>         0.1390
     45 H18         1.6846    6.0399    4.2388 H         1 <0>         0.1474
     46 H19         4.3828    6.9166    3.2679 H         1 <0>         0.2279
@<TRIPOS>BOND
     1    1    2 1
     2    1   30 1
     3    1   31 1
     4    1   32 1
     5    2    3 1
     6    3    4 1
     7    3   33 1
     8    3   34 1
     9    4    5 1
    10    4   35 1
    11    4   36 1
    12    5   14 am
    13    5    6 1
    14    6    7 1
    15    6    8 1
    16    6   23 1
    17    8    9 1
    18    8   13 2
    19    9   16 1
    20    9   10 2
    21   10   12 1
    22   11   12 1
    23   12   13 1
    24   13   14 1
    25   14   15 2
    26   16   21 ar
    27   16   17 ar
    28   17   18 ar
    29   17   37 1
    30   18   19 ar
    31   18   38 1
    32   19   20 ar
    33   19   39 1
    34   20   21 ar
    35   20   40 1
    36   21   22 1
    37   22   41 1
    38   23   28 ar
    39   23   24 ar
    40   24   25 ar
    41   24   42 1
    42   25   26 ar
    43   25   43 1
    44   26   27 ar
    45   26   44 1
    46   27   28 ar
    47   27   29 1
    48   28   45 1
    49   29   46 1
@<TRIPOS>MOLECULE
ZINC02242380
   46    49     0     0     0
SMALL
USER_CHARGES

@<TRIPOS>ATOM
      1 C1         -0.0150    1.0864    0.0085 C.3       1 <0>        -0.0637
      2 O1         -0.6835    1.5473    1.1844 O.3       1 <0>        -0.2708
      3 C2         -0.7581    2.9704    1.2906 C.3       1 <0>        -0.0559
      4 C3         -1.4897    3.3479    2.5802 C.3       1 <0>         0.0257
      5 N1         -0.6995    2.9140    3.7350 N.am      1 <0>        -0.3350
      6 C4          0.3230    3.7152    4.4177 C.3       1 <0>         0.1437
      7 H1         -0.1224    4.6234    4.8235 H         1 <0>         0.1243
      8 C5          0.8568    2.8587    5.5332 C.2       1 <0>        -0.1686
      9 C6          1.7160    2.7397    6.5785 C.2       1 <0>        -0.0288
     10 N2          1.5243    1.4936    7.1032 N.2       1 <0>        -0.1031
     11 H2          0.2994   -0.0549    6.6345 H         1 <0>         0.2938
     12 N3          0.6143    0.8739    6.4394 N.pl3     1 <0>        -0.0044
     13 C7          0.1544    1.6342    5.4658 C.2       1 <0>        -0.2051
     14 C8         -0.7979    1.7199    4.3440 C.2       1 <0>         0.3882
     15 O2         -1.5626    0.8343    4.0142 O.2       1 <0>        -0.3404
     16 C9          2.6734    3.7617    7.0558 C.ar      1 <0>        -0.0250
     17 C10         4.0458    3.5274    6.9765 C.ar      1 <0>        -0.0876
     18 C11         4.9341    4.4841    7.4227 C.ar      1 <0>        -0.1432
     19 C12         4.4686    5.6761    7.9497 C.ar      1 <0>        -0.1120
     20 C13         3.1106    5.9194    8.0329 C.ar      1 <0>        -0.1573
     21 C14         2.2065    4.9705    7.5840 C.ar      1 <0>         0.0861
     22 O3          0.8716    5.2105    7.6608 O.3       1 <0>        -0.2916
     23 C15         1.4307    4.0668    3.4583 C.ar      1 <0>        -0.0833
     24 C16         1.8616    3.1369    2.5298 C.ar      1 <0>        -0.1200
     25 C17         2.8736    3.4583    1.6446 C.ar      1 <0>        -0.1270
     26 C18         3.4650    4.7061    1.6930 C.ar      1 <0>        -0.1490
     27 C19         3.0384    5.6386    2.6271 C.ar      1 <0>         0.0666
     28 C20         2.0187    5.3155    3.5107 C.ar      1 <0>        -0.1365
     29 O4          3.6188    6.8664    2.6771 O.3       1 <0>        -0.2916
     30 H3         -0.0004   -0.0035    0.0024 H         1 <0>         0.1026
     31 H4          1.0076    1.4635    0.0005 H         1 <0>         0.0502
     32 H5         -0.5424    1.4476   -0.8744 H         1 <0>         0.0542
     33 H6          0.2492    3.3866    1.3092 H         1 <0>         0.0881
     34 H7         -1.3009    3.3706    0.4343 H         1 <0>         0.0696
     35 H8         -1.6250    4.4288    2.6179 H         1 <0>         0.1003
     36 H9         -2.4636    2.8589    2.6018 H         1 <0>         0.1218
     37 H10         4.4129    2.5984    6.5659 H         1 <0>         0.1437
     38 H11         5.9969    4.3020    7.3609 H         1 <0>         0.1335
     39 H12         5.1700    6.4202    8.2973 H         1 <0>         0.1326
     40 H13         2.7540    6.8520    8.4445 H         1 <0>         0.1417
     41 H14         0.4669    4.9206    8.4899 H         1 <0>         0.2331
     42 H15         1.4038    2.1593    2.4935 H         1 <0>         0.1531
     43 H16         3.2056    2.7318    0.9176 H         1 <0>         0.1328
     44 H17         4.2588    4.9550    1.0044 H         1 <0>         0.1390
     45 H18         1.6846    6.0399    4.2388 H         1 <0>         0.1474
     46 H19         4.3828    6.9166    3.2679 H         1 <0>         0.2279
@<TRIPOS>BOND
     1    1    2 1
     2    1   30 1
     3    1   31 1
     4    1   32 1
     5    2    3 1
     6    3    4 1
     7    3   33 1
     8    3   34 1
     9    4    5 1
    10    4   35 1
    11    4   36 1
    12    5   14 am
    13    5    6 1
    14    6    7 1
    15    6    8 1
    16    6   23 1
    17    8    9 1
    18    8   13 2
    19    9   16 1
    20    9   10 2
    21   10   12 1
    22   11   12 1
    23   12   13 1
    24   13   14 1
    25   14   15 2
    26   16   21 ar
    27   16   17 ar
    28   17   18 ar
    29   17   37 1
    30   18   19 ar
    31   18   38 1
    32   19   20 ar
    33   19   39 1
    34   20   21 ar
    35   20   40 1
    36   21   22 1
    37   22   41 1
    38   23   28 ar
    39   23   24 ar
    40   24   25 ar
    41   24   42 1
    42   25   26 ar
    43   25   43 1
    44   26   27 ar
    45   26   44 1
    46   27   28 ar
    47   27   29 1
    48   28   45 1
    49   29   46 1
@<TRIPOS>MOLECULE
ZINC02251491
   42    43     0     0     0
SMALL
USER_CHARGES

@<TRIPOS>ATOM
      1 C1         -1.3952   14.2741   -0.6819 C.3       1 <0>        -0.2087
      2 C2          0.0280   13.7160   -0.7436 C.3       1 <0>        -0.1659
      3 C3         -0.0078   12.2022   -0.5248 C.3       1 <0>        -0.1462
      4 C4          1.4155   11.6442   -0.5864 C.3       1 <0>        -0.1776
      5 C5          1.3802   10.1531   -0.3709 C.2       1 <0>         0.3003
      6 O1          0.3210    9.5920   -0.1862 O.2       1 <0>        -0.3361
      7 N1          2.5257    9.4431   -0.3834 N.am      1 <0>        -0.3051
      8 N2          2.4929    8.0569   -0.1831 N.pl3     1 <0>        -0.1655
      9 C6          3.6387    7.3467   -0.1956 C.2       1 <0>         0.1617
     10 C7          3.5978    5.9671   -0.1142 C.2       1 <0>        -0.4295
     11 C8          4.8282    5.1683    0.0286 C.2       1 <0>         0.3782
     12 O2          5.9191    5.7048    0.0789 O.2       1 <0>        -0.3619
     13 N3          4.7121    3.8264    0.1025 N.am      1 <0>        -0.3388
     14 C9          3.5166    3.2226    0.0488 C.2       1 <0>         0.4080
     15 O3          3.4806    2.0100    0.1204 O.2       1 <0>        -0.3613
     16 N4          2.3587    3.8855   -0.0801 N.am      1 <0>        -0.2546
     17 C10         2.3227    5.2308   -0.1713 C.2       1 <0>         0.3766
     18 O4          1.2656    5.8207   -0.2934 O.2       1 <0>        -0.3627
     19 C11         1.1582    3.1637   -0.1269 C.ar      1 <0>         0.0529
     20 C12         0.2319    3.2871    0.8999 C.ar      1 <0>        -0.0995
     21 C13        -0.9501    2.5742    0.8512 C.ar      1 <0>        -0.1236
     22 C14        -1.2088    1.7339   -0.2160 C.ar      1 <0>        -0.1175
     23 C15        -0.2907    1.6132   -1.2430 C.ar      1 <0>        -0.1240
     24 C16         0.8931    2.3236   -1.1999 C.ar      1 <0>        -0.0973
     25 H1         -1.8281   14.0583    0.2949 H         1 <0>         0.0771
     26 H2         -1.3697   15.3526   -0.8378 H         1 <0>         0.0749
     27 H3         -2.0019   13.8089   -1.4589 H         1 <0>         0.0774
     28 H4          0.6347   14.1812    0.0334 H         1 <0>         0.0782
     29 H5          0.4609   13.9318   -1.7204 H         1 <0>         0.0786
     30 H6         -0.6144   11.7370   -1.3018 H         1 <0>         0.1030
     31 H7         -0.4406   11.9864    0.4521 H         1 <0>         0.1019
     32 H8          2.0221   12.1093    0.1906 H         1 <0>         0.1041
     33 H9          1.8483   11.8599   -1.5633 H         1 <0>         0.1049
     34 H10         3.3729    9.8919   -0.5312 H         1 <0>         0.2513
     35 H11         1.6458    7.6081   -0.0353 H         1 <0>         0.3223
     36 H12         4.5885    7.8555   -0.2693 H         1 <0>         0.1750
     37 H13         5.5121    3.2860    0.1963 H         1 <0>         0.2716
     38 H14         0.4352    3.9402    1.7357 H         1 <0>         0.1386
     39 H15        -1.6710    2.6698    1.6497 H         1 <0>         0.1344
     40 H16        -2.1317    1.1741   -0.2497 H         1 <0>         0.1309
     41 H17        -0.4975    0.9595   -2.0775 H         1 <0>         0.1342
     42 H18         1.6119    2.2253   -2.0000 H         1 <0>         0.1399
@<TRIPOS>BOND
     1    1    2 1
     2    1   25 1
     3    1   26 1
     4    1   27 1
     5    2    3 1
     6    2   28 1
     7    2   29 1
     8    3    4 1
     9    3   30 1
    10    3   31 1
    11    4    5 1
    12    4   32 1
    13    4   33 1
    14    5    6 2
    15    5    7 am
    16    7    8 1
    17    7   34 1
    18    8    9 1
    19    8   35 1
    20    9   10 2
    21    9   36 1
    22   10   17 1
    23   10   11 1
    24   11   12 2
    25   11   13 am
    26   13   14 am
    27   13   37 1
    28   14   15 2
    29   14   16 am
    30   16   17 am
    31   16   19 1
    32   17   18 2
    33   19   24 ar
    34   19   20 ar
    35   20   21 ar
    36   20   38 1
    37   21   22 ar
    38   21   39 1
    39   22   23 ar
    40   22   40 1
    41   23   24 ar
    42   23   41 1
    43   24   42 1
@<TRIPOS>MOLECULE
ZINC02263907
   50    52     0     0     0
SMALL
USER_CHARGES

@<TRIPOS>ATOM
      1 C1         -4.8793    1.1634    0.0568 C.2       1 <0>        -0.3095
      2 C2         -4.8570   -0.1562    0.0495 C.2       1 <0>         0.0642
      3 C3         -6.1491   -0.9317    0.0581 C.3       1 <0>        -0.1328
      4 H1         -6.9711   -0.2173    0.0120 H         1 <0>         0.1733
      5 C4         -6.1954   -1.7860   -1.1946 C.2       1 <0>         0.3083
      6 O1         -6.1253   -1.2883   -2.2979 O.2       1 <0>        -0.2896
      7 N1         -6.3179   -3.1209   -1.0354 N.am      1 <0>        -0.3488
      8 C5         -6.3964   -3.6856    0.1750 C.2       1 <0>         0.4057
      9 O2         -6.5048   -4.8945    0.2263 O.2       1 <0>        -0.3612
     10 N2         -6.3639   -3.0163    1.3330 N.am      1 <0>        -0.3083
     11 C6         -6.2464   -1.6722    1.3785 C.2       1 <0>         0.3123
     12 O3         -6.2183   -1.0791    2.4355 O.2       1 <0>        -0.2906
     13 C7         -6.4588   -3.7643    2.5890 C.3       1 <0>         0.0405
     14 C8         -5.2938   -4.7514    2.6840 C.3       1 <0>        -0.1814
     15 C9         -5.3929   -5.5327    3.9958 C.3       1 <0>        -0.1528
     16 C10        -6.7160   -6.3001    4.0336 C.3       1 <0>        -0.1619
     17 C11        -7.8810   -5.3129    3.9386 C.3       1 <0>        -0.1530
     18 C12        -7.7819   -4.5317    2.6268 C.3       1 <0>        -0.1806
     19 N3         -3.6425   -0.8303    0.0338 N.pl3     1 <0>        -0.2690
     20 N4         -2.4413   -0.1093    0.0257 N.am      1 <0>        -0.2688
     21 C13        -1.2629   -0.7633    0.0105 C.2       1 <0>         0.3474
     22 O4         -1.2424   -1.9790    0.0038 O.2       1 <0>        -0.3590
     23 C14         0.0021   -0.0041    0.0020 C.ar      1 <0>        -0.1534
     24 C15        -0.0169    1.3929    0.0097 C.ar      1 <0>        -0.0919
     25 C16         1.1680    2.0961    0.0022 C.ar      1 <0>        -0.1468
     26 C17         2.3796    1.4241   -0.0130 C.ar      1 <0>        -0.0874
     27 C18         2.4127    0.0440   -0.0207 C.ar      1 <0>        -0.1660
     28 C19         1.2296   -0.6800   -0.0133 C.ar      1 <0>         0.1414
     29 O5          1.2606   -2.0361   -0.0214 O.3       1 <0>        -0.2685
     30 H2         -5.8236    1.6875    0.0689 H         1 <0>         0.1325
     31 H3         -3.9533    1.7192    0.0505 H         1 <0>         0.1142
     32 H4         -6.3496   -3.6876   -1.8219 H         1 <0>         0.2738
     33 H5         -6.4169   -3.0708    3.4289 H         1 <0>         0.1355
     34 H6         -5.3357   -5.4449    1.8441 H         1 <0>         0.1203
     35 H7         -4.3512   -4.2047    2.6571 H         1 <0>         0.0881
     36 H8         -5.3509   -4.8392    4.8357 H         1 <0>         0.0807
     37 H9         -4.5629   -6.2359    4.0635 H         1 <0>         0.0879
     38 H10        -6.7866   -6.8566    4.9682 H         1 <0>         0.0805
     39 H11        -6.7579   -6.9935    3.1937 H         1 <0>         0.0903
     40 H12        -7.8391   -4.6195    4.7785 H         1 <0>         0.0805
     41 H13        -8.8236   -5.8597    3.9656 H         1 <0>         0.0854
     42 H14        -8.6119   -3.8284    2.5592 H         1 <0>         0.0807
     43 H15        -7.8238   -5.2252    1.7869 H         1 <0>         0.1202
     44 H16        -3.6261   -1.8001    0.0284 H         1 <0>         0.2708
     45 H17        -2.4577    0.8605    0.0311 H         1 <0>         0.2559
     46 H18        -0.9590    1.9208    0.0170 H         1 <0>         0.1265
     47 H19         1.1523    3.1759    0.0081 H         1 <0>         0.1368
     48 H20         3.3035    1.9833   -0.0188 H         1 <0>         0.1372
     49 H21         3.3610   -0.4726   -0.0329 H         1 <0>         0.1480
     50 H22         1.2613   -2.4243   -0.9070 H         1 <0>         0.2421
@<TRIPOS>BOND
     1    1    2 2
     2    1   30 1
     3    1   31 1
     4    2    3 1
     5    2   19 1
     6    3    4 1
     7    3   11 1
     8    3    5 1
     9    5    6 2
    10    5    7 am
    11    7    8 am
    12    7   32 1
    13    8    9 2
    14    8   10 am
    15   10   11 am
    16   10   13 1
    17   11   12 2
    18   13   18 1
    19   13   14 1
    20   13   33 1
    21   14   15 1
    22   14   34 1
    23   14   35 1
    24   15   16 1
    25   15   36 1
    26   15   37 1
    27   16   17 1
    28   16   38 1
    29   16   39 1
    30   17   18 1
    31   17   40 1
    32   17   41 1
    33   18   42 1
    34   18   43 1
    35   19   20 1
    36   19   44 1
    37   20   21 am
    38   20   45 1
    39   21   22 2
    40   21   23 1
    41   23   28 ar
    42   23   24 ar
    43   24   25 ar
    44   24   46 1
    45   25   26 ar
    46   25   47 1
    47   26   27 ar
    48   26   48 1
    49   27   28 ar
    50   27   49 1
    51   28   29 1
    52   29   50 1
@<TRIPOS>MOLECULE
ZINC02273578
   43    45     0     0     0
SMALL
USER_CHARGES

@<TRIPOS>ATOM
      1 C1          3.7486    4.0216    0.3960 C.3       1 <0>        -0.0653
      2 O1          2.5603    3.5705   -0.2570 O.3       1 <0>        -0.2049
      3 C2          2.3762    2.2286   -0.3432 C.ar      1 <0>         0.1261
      4 C3          1.2410    1.7234   -0.9662 C.ar      1 <0>        -0.1703
      5 C4          1.0508    0.3625   -1.0562 C.ar      1 <0>        -0.0243
      6 C5          2.0009   -0.5108   -0.5201 C.ar      1 <0>        -0.1740
      7 C6          3.1409    0.0012    0.1053 C.ar      1 <0>        -0.0618
      8 C7          3.3237    1.3633    0.1912 C.ar      1 <0>        -0.2318
      9 C8          1.8008   -1.9699   -0.6139 C.2       1 <0>         0.3541
     10 O2          0.8080   -2.4138   -1.1582 O.2       1 <0>        -0.3443
     11 N1          2.7183   -2.8106   -0.0963 N.am      1 <0>        -0.3071
     12 C9          2.4812   -4.1895   -0.0939 C.2       1 <0>         0.0042
     13 C10         3.4463   -5.0417    0.3249 C.2       1 <0>        -0.1672
     14 C11         3.1546   -6.4765    0.4534 C.ar      1 <0>        -0.0548
     15 C12         1.8776   -6.9018    0.8366 C.ar      1 <0>        -0.1145
     16 C13         1.6062   -8.2475    0.9521 C.ar      1 <0>        -0.1033
     17 C14         2.5982   -9.1855    0.6987 C.ar      1 <0>         0.0065
     18 C15         3.8754   -8.7689    0.3213 C.ar      1 <0>        -0.0045
     19 C16         4.1545   -7.4218    0.1986 C.ar      1 <0>        -0.1059
     20 O3          4.6559   -9.8734    0.1336 O.3       1 <0>        -0.2112
     21 C17         3.7376  -10.9743    0.0007 C.3       1 <0>         0.1070
     22 O4          2.5822  -10.5490    0.7468 O.3       1 <0>        -0.2066
     23 C18         1.1853   -4.7126   -0.5458 C.2       1 <0>         0.3754
     24 O5          0.2055   -4.6106    0.1686 O.2       1 <0>        -0.3416
     25 N2          1.0813   -5.3055   -1.7516 N.am      1 <0>        -0.3123
     26 N3         -0.1412   -5.7017   -2.2148 N.3       1 <0>        -0.2118
     27 H1          3.7590    3.6579    1.4235 H         1 <0>         0.0715
     28 H2          4.6215    3.6398   -0.1334 H         1 <0>         0.0699
     29 H3          3.7717    5.1114    0.3961 H         1 <0>         0.1134
     30 H4          0.5094    2.3990   -1.3841 H         1 <0>         0.1527
     31 H5          0.1683   -0.0293   -1.5400 H         1 <0>         0.1630
     32 H6          3.8774   -0.6705    0.5211 H         1 <0>         0.1240
     33 H7          4.2044    1.7598    0.6744 H         1 <0>         0.1401
     34 H8          3.5431   -2.4597    0.2746 H         1 <0>         0.2384
     35 H9          4.4305   -4.6672    0.5645 H         1 <0>         0.1363
     36 H10         1.1042   -6.1754    1.0384 H         1 <0>         0.1826
     37 H11         0.6191   -8.5740    1.2443 H         1 <0>         0.1509
     38 H12         5.1426   -7.0985   -0.0939 H         1 <0>         0.1401
     39 H13         3.4800  -11.1337   -1.0464 H         1 <0>         0.0863
     40 H14         4.1610  -11.8805    0.4340 H         1 <0>         0.1289
     41 H15         1.8745   -5.4509   -2.2906 H         1 <0>         0.2238
     42 H16        -0.7893   -4.9286   -2.2318 H         1 <0>         0.1688
     43 H17        -0.0620   -6.1274   -3.1261 H         1 <0>         0.1534
@<TRIPOS>BOND
     1    1    2 1
     2    1   27 1
     3    1   28 1
     4    1   29 1
     5    2    3 1
     6    3    8 ar
     7    3    4 ar
     8    4    5 ar
     9    4   30 1
    10    5    6 ar
    11    5   31 1
    12    6    7 ar
    13    6    9 1
    14    7    8 ar
    15    7   32 1
    16    8   33 1
    17    9   10 2
    18    9   11 am
    19   11   12 1
    20   11   34 1
    21   12   13 2
    22   12   23 1
    23   13   14 1
    24   13   35 1
    25   14   19 ar
    26   14   15 ar
    27   15   16 ar
    28   15   36 1
    29   16   17 ar
    30   16   37 1
    31   17   22 1
    32   17   18 ar
    33   18   19 ar
    34   18   20 1
    35   19   38 1
    36   20   21 1
    37   21   22 1
    38   21   39 1
    39   21   40 1
    40   23   24 2
    41   23   25 am
    42   25   26 1
    43   25   41 1
    44   26   42 1
    45   26   43 1
@<TRIPOS>MOLECULE
ZINC02279894
   43    45     0     0     0
SMALL
USER_CHARGES

@<TRIPOS>ATOM
      1 C1          4.5034    3.0489   -2.7218 C.3       1 <0>        -0.0698
      2 O1          3.3075    2.5443   -2.1242 O.3       1 <0>        -0.1657
      3 C2          3.2977    1.2325   -1.7787 C.ar      1 <0>         0.1598
      4 C3          4.4150    0.4433   -2.0082 C.ar      1 <0>        -0.2333
      5 C4          4.4038   -0.8915   -1.6557 C.ar      1 <0>        -0.0594
      6 C5          3.2800   -1.4526   -1.0709 C.ar      1 <0>        -0.1776
      7 C6          2.1632   -0.6822   -0.8307 C.ar      1 <0>        -0.0673
      8 C7          2.1588    0.6686   -1.1878 C.ar      1 <0>        -0.1655
      9 C8          0.9646    1.4978   -0.9388 C.2       1 <0>         0.3486
     10 O2          0.9663    2.6744   -1.2464 O.2       1 <0>        -0.3123
     11 N1         -0.1286    0.9515   -0.3703 N.am      1 <0>        -0.3096
     12 C9         -1.2302    1.7554   -0.0576 C.2       1 <0>         0.0132
     13 C10        -2.3717    1.1907    0.4020 C.2       1 <0>        -0.1778
     14 C11        -3.4850    2.0410    0.8467 C.ar      1 <0>        -0.0527
     15 C12        -3.2283    3.2955    1.4113 C.ar      1 <0>        -0.1131
     16 C13        -4.2742    4.0922    1.8225 C.ar      1 <0>        -0.1029
     17 C14        -5.5841    3.6514    1.6885 C.ar      1 <0>         0.0043
     18 C15        -5.8478    2.3993    1.1316 C.ar      1 <0>        -0.0041
     19 C16        -4.8051    1.5964    0.7122 C.ar      1 <0>        -0.1074
     20 O3         -7.1994    2.2069    1.1130 O.3       1 <0>        -0.2109
     21 C17        -7.7758    3.5151    1.2840 C.3       1 <0>         0.1070
     22 O4         -6.7707    4.2394    2.0172 O.3       1 <0>        -0.2068
     23 C18        -1.1484    3.2119   -0.2280 C.2       1 <0>         0.3702
     24 O5         -0.3987    3.8653    0.4732 O.2       1 <0>        -0.3328
     25 N2         -1.9038    3.8248   -1.1609 N.am      1 <0>        -0.3184
     26 N3         -1.7544    5.1632   -1.3893 N.3       1 <0>        -0.2124
     27 H1          4.3775    4.1076   -2.9485 H         1 <0>         0.1174
     28 H2          5.3366    2.9218   -2.0306 H         1 <0>         0.0695
     29 H3          4.7082    2.5021   -3.6423 H         1 <0>         0.0655
     30 H4          5.2950    0.8736   -2.4630 H         1 <0>         0.1430
     31 H5          5.2763   -1.5018   -1.8365 H         1 <0>         0.1345
     32 H6          3.2811   -2.4976   -0.7980 H         1 <0>         0.1356
     33 H7          1.2909   -1.1229   -0.3709 H         1 <0>         0.1275
     34 H8         -0.1531    0.0004   -0.1816 H         1 <0>         0.2367
     35 H9         -2.4641    0.1154    0.4419 H         1 <0>         0.1365
     36 H10        -2.2108    3.6405    1.5210 H         1 <0>         0.1780
     37 H11        -4.0745    5.0618    2.2542 H         1 <0>         0.1510
     38 H12        -5.0082    0.6271    0.2814 H         1 <0>         0.1408
     39 H13        -7.9560    3.9835    0.3164 H         1 <0>         0.0858
     40 H14        -8.6998    3.4542    1.8590 H         1 <0>         0.1290
     41 H15        -2.5534    3.3154   -1.6702 H         1 <0>         0.2244
     42 H16        -0.7978    5.3861   -1.6203 H         1 <0>         0.1688
     43 H17        -2.3839    5.4792   -2.1117 H         1 <0>         0.1527
@<TRIPOS>BOND
     1    1    2 1
     2    1   27 1
     3    1   28 1
     4    1   29 1
     5    2    3 1
     6    3    8 ar
     7    3    4 ar
     8    4    5 ar
     9    4   30 1
    10    5    6 ar
    11    5   31 1
    12    6    7 ar
    13    6   32 1
    14    7    8 ar
    15    7   33 1
    16    8    9 1
    17    9   10 2
    18    9   11 am
    19   11   12 1
    20   11   34 1
    21   12   13 2
    22   12   23 1
    23   13   14 1
    24   13   35 1
    25   14   19 ar
    26   14   15 ar
    27   15   16 ar
    28   15   36 1
    29   16   17 ar
    30   16   37 1
    31   17   22 1
    32   17   18 ar
    33   18   19 ar
    34   18   20 1
    35   19   38 1
    36   20   21 1
    37   21   22 1
    38   21   39 1
    39   21   40 1
    40   23   24 2
    41   23   25 am
    42   25   26 1
    43   25   41 1
    44   26   42 1
    45   26   43 1
@<TRIPOS>MOLECULE
ZINC02280695
   43    46     0     0     0
SMALL
USER_CHARGES

@<TRIPOS>ATOM
      1 C1         -5.9694    5.1591    0.1623 C.3       1 <0>        -0.1699
      2 C2         -4.4699    5.2643    0.0554 C.ar      1 <0>        -0.1069
      3 C3         -3.8758    6.5101   -0.0975 C.ar      1 <0>        -0.0807
      4 C4         -2.5078    6.6279   -0.1972 C.ar      1 <0>        -0.1504
      5 C5         -1.7076    5.4889   -0.1443 C.ar      1 <0>         0.0508
      6 C6         -2.3147    4.2282    0.0103 C.ar      1 <0>        -0.1156
      7 C7         -3.7061    4.1338    0.1092 C.ar      1 <0>        -0.0664
      8 C8         -1.2315    3.2460    0.0299 C.2       1 <0>         0.0357
      9 C9         -0.0500    3.9509   -0.1112 C.2       1 <0>        -0.1454
     10 N1         -0.3459    5.3003   -0.2154 N.pl3     1 <0>        -0.1584
     11 H1          0.3094    6.0075   -0.3226 H         1 <0>         0.2615
     12 C10         1.1713    3.2306   -0.1246 C.2       1 <0>         0.3632
     13 O1          2.2306    3.8195   -0.2475 O.2       1 <0>        -0.3499
     14 N2          1.1501    1.8888   -0.0005 N.am      1 <0>        -0.2488
     15 C11        -0.0096    1.2227    0.1356 C.2       1 <0>         0.4101
     16 O2          0.0085    0.0115    0.2447 O.2       1 <0>        -0.3583
     17 N3         -1.1913    1.8684    0.1480 N.am      1 <0>        -0.2816
     18 H2         -2.0417    1.3508    0.2428 H         1 <0>         0.2752
     19 N4          2.3563    1.1764   -0.0141 N.2       1 <0>        -0.0020
     20 C12         3.2100    1.3270    0.9522 C.2       1 <0>        -0.0174
     21 C13         4.5259    0.6668    0.8826 C.ar      1 <0>        -0.0399
     22 C14         4.8543   -0.1263   -0.2201 C.ar      1 <0>        -0.0975
     23 C15         6.0876   -0.7390   -0.2855 C.ar      1 <0>        -0.1325
     24 C16         7.0013   -0.5786    0.7464 C.ar      1 <0>         0.0676
     25 C17         6.6786    0.2060    1.8516 C.ar      1 <0>         0.0626
     26 C18         5.4462    0.8277    1.9219 C.ar      1 <0>        -0.1806
     27 O3          7.5766    0.3604    2.8612 O.3       1 <0>        -0.1985
     28 C19         7.1794    1.1789    3.9632 C.3       1 <0>        -0.0662
     29 O4          8.2139   -1.1888    0.6790 O.3       1 <0>        -0.2764
     30 H3         -6.2647    5.2272    1.2093 H         1 <0>         0.0862
     31 H4         -6.4315    5.9712   -0.3991 H         1 <0>         0.0828
     32 H5         -6.2966    4.2030   -0.2461 H         1 <0>         0.0821
     33 H6         -4.4931    7.3954   -0.1388 H         1 <0>         0.1377
     34 H7         -2.0558    7.6016   -0.3157 H         1 <0>         0.1357
     35 H8         -4.1758    3.1686    0.2283 H         1 <0>         0.1316
     36 H9          2.9559    1.9360    1.8072 H         1 <0>         0.1291
     37 H10         4.1435   -0.2561   -1.0228 H         1 <0>         0.1622
     38 H11         6.3418   -1.3484   -1.1402 H         1 <0>         0.1509
     39 H12         5.1952    1.4367    2.7777 H         1 <0>         0.1413
     40 H13         7.9855    1.2181    4.6958 H         1 <0>         0.1120
     41 H14         6.9621    2.1862    3.6079 H         1 <0>         0.0704
     42 H15         6.2876    0.7568    4.4264 H         1 <0>         0.0654
     43 H16         8.2303   -2.0750    1.0656 H         1 <0>         0.2291
@<TRIPOS>BOND
     1    1    2 1
     2    1   30 1
     3    1   31 1
     4    1   32 1
     5    2    7 ar
     6    2    3 ar
     7    3    4 ar
     8    3   33 1
     9    4    5 ar
    10    4   34 1
    11    5   10 1
    12    5    6 ar
    13    6    7 ar
    14    6    8 1
    15    7   35 1
    16    8   17 1
    17    8    9 2
    18    9   10 1
    19    9   12 1
    20   10   11 1
    21   12   13 2
    22   12   14 am
    23   14   15 am
    24   14   19 1
    25   15   16 2
    26   15   17 am
    27   17   18 1
    28   19   20 2
    29   20   21 1
    30   20   36 1
    31   21   26 ar
    32   21   22 ar
    33   22   23 ar
    34   22   37 1
    35   23   24 ar
    36   23   38 1
    37   24   25 ar
    38   24   29 1
    39   25   26 ar
    40   25   27 1
    41   26   39 1
    42   27   28 1
    43   28   40 1
    44   28   41 1
    45   28   42 1
    46   29   43 1
@<TRIPOS>MOLECULE
ZINC02281793
   41    45     0     0     0
SMALL
USER_CHARGES

@<TRIPOS>ATOM
      1 C1         -5.9693    5.1594    0.1643 C.3       1 <0>        -0.1700
      2 C2         -4.4698    5.2645    0.0572 C.ar      1 <0>        -0.1069
      3 C3         -3.8756    6.5104   -0.0951 C.ar      1 <0>        -0.0806
      4 C4         -2.5076    6.6281   -0.1951 C.ar      1 <0>        -0.1505
      5 C5         -1.7074    5.4891   -0.1427 C.ar      1 <0>         0.0510
      6 C6         -2.3146    4.2283    0.0114 C.ar      1 <0>        -0.1157
      7 C7         -3.7060    4.1339    0.1104 C.ar      1 <0>        -0.0662
      8 C8         -1.2314    3.2461    0.0308 C.2       1 <0>         0.0363
      9 C9         -0.0499    3.9510   -0.1099 C.2       1 <0>        -0.1457
     10 N1         -0.3458    5.3005   -0.2137 N.pl3     1 <0>        -0.1584
     11 H1          0.3095    6.0076   -0.3208 H         1 <0>         0.2614
     12 C10         1.1714    3.2307   -0.1237 C.2       1 <0>         0.3636
     13 O1          2.2307    3.8196   -0.2463 O.2       1 <0>        -0.3511
     14 N2          1.1501    1.8888   -0.0005 N.am      1 <0>        -0.2480
     15 C11        -0.0096    1.2227    0.1356 C.2       1 <0>         0.4101
     16 O2          0.0085    0.0116    0.2448 O.2       1 <0>        -0.3573
     17 N3         -1.1913    1.8684    0.1481 N.am      1 <0>        -0.2815
     18 H2         -2.0417    1.3508    0.2424 H         1 <0>         0.2754
     19 N4          2.3563    1.1764   -0.0141 N.2       1 <0>        -0.0065
     20 C12         3.2100    1.3270    0.9522 C.2       1 <0>        -0.0115
     21 C13         4.5259    0.6668    0.8826 C.ar      1 <0>        -0.0675
     22 C14         4.8545   -0.1263   -0.2200 C.ar      1 <0>        -0.0673
     23 C15         6.0876   -0.7391   -0.2850 C.ar      1 <0>        -0.1264
     24 C16         7.0023   -0.5797    0.7465 C.ar      1 <0>         0.0296
     25 C17         6.6789    0.2063    1.8524 C.ar      1 <0>        -0.0073
     26 C18         5.4463    0.8275    1.9216 C.ar      1 <0>        -0.0817
     27 O3          7.7373    0.2013    2.7149 O.3       1 <0>        -0.2063
     28 C19         8.8613   -0.2577    1.9411 C.3       1 <0>         0.1067
     29 O4          8.2622   -1.0754    0.9187 O.3       1 <0>        -0.2045
     30 H3         -6.2644    5.2269    1.2114 H         1 <0>         0.0864
     31 H4         -6.4314    5.9717   -0.3966 H         1 <0>         0.0827
     32 H5         -6.2966    4.2034   -0.2445 H         1 <0>         0.0821
     33 H6         -4.4929    7.3957   -0.1359 H         1 <0>         0.1377
     34 H7         -2.0556    7.6019   -0.3129 H         1 <0>         0.1357
     35 H8         -4.1758    3.1687    0.2291 H         1 <0>         0.1317
     36 H9          2.9559    1.9360    1.8072 H         1 <0>         0.1318
     37 H10         4.1438   -0.2563   -1.0228 H         1 <0>         0.1678
     38 H11         6.3412   -1.3486   -1.1397 H         1 <0>         0.1503
     39 H12         5.1950    1.4367    2.7773 H         1 <0>         0.1469
     40 H13         9.3898    0.5854    1.4963 H         1 <0>         0.0909
     41 H14         9.5354   -0.8505    2.5593 H         1 <0>         0.1328
@<TRIPOS>BOND
     1    1    2 1
     2    1   30 1
     3    1   31 1
     4    1   32 1
     5    2    7 ar
     6    2    3 ar
     7    3    4 ar
     8    3   33 1
     9    4    5 ar
    10    4   34 1
    11    5   10 1
    12    5    6 ar
    13    6    7 ar
    14    6    8 1
    15    7   35 1
    16    8   17 1
    17    8    9 2
    18    9   10 1
    19    9   12 1
    20   10   11 1
    21   12   13 2
    22   12   14 am
    23   14   15 am
    24   14   19 1
    25   15   16 2
    26   15   17 am
    27   17   18 1
    28   19   20 2
    29   20   21 1
    30   20   36 1
    31   21   26 ar
    32   21   22 ar
    33   22   23 ar
    34   22   37 1
    35   23   24 ar
    36   23   38 1
    37   24   29 1
    38   24   25 ar
    39   25   26 ar
    40   25   27 1
    41   26   39 1
    42   27   28 1
    43   28   29 1
    44   28   40 1
    45   28   41 1
@<TRIPOS>MOLECULE
ZINC02281984
   42    46     0     0     0
SMALL
USER_CHARGES

@<TRIPOS>ATOM
      1 C1         -6.5693    6.4046    0.0836 C.3       1 <0>        -0.0625
      2 O1         -5.8310    5.1828    0.1482 O.3       1 <0>        -0.2109
      3 C2         -4.4774    5.2736    0.0531 C.ar      1 <0>         0.0649
      4 C3         -3.8748    6.5201   -0.1002 C.ar      1 <0>        -0.1653
      5 C4         -2.5065    6.6296   -0.1984 C.ar      1 <0>        -0.1159
      6 C5         -1.7091    5.4890   -0.1450 C.ar      1 <0>         0.0237
      7 C6         -2.3148    4.2282    0.0099 C.ar      1 <0>        -0.0825
      8 C7         -3.7066    4.1309    0.1085 C.ar      1 <0>        -0.1073
      9 C8         -1.2312    3.2464    0.0298 C.2       1 <0>         0.0301
     10 C9         -0.0496    3.9512   -0.1113 C.2       1 <0>        -0.1374
     11 N1         -0.3452    5.3004   -0.2159 N.pl3     1 <0>        -0.1602
     12 H1          0.3100    6.0075   -0.3232 H         1 <0>         0.2611
     13 C10         1.1716    3.2306   -0.1246 C.2       1 <0>         0.3630
     14 O2          2.2309    3.8193   -0.2476 O.2       1 <0>        -0.3506
     15 N2          1.1501    1.8888   -0.0005 N.am      1 <0>        -0.2479
     16 C11        -0.0097    1.2228    0.1356 C.2       1 <0>         0.4099
     17 O3          0.0083    0.0116    0.2448 O.2       1 <0>        -0.3567
     18 N3         -1.1913    1.8686    0.1481 N.am      1 <0>        -0.2809
     19 H2         -2.0417    1.3511    0.2431 H         1 <0>         0.2769
     20 N4          2.3563    1.1764   -0.0132 N.2       1 <0>        -0.0063
     21 C12         3.2096    1.3276    0.9534 C.2       1 <0>        -0.0115
     22 C13         4.5255    0.6673    0.8847 C.ar      1 <0>        -0.0676
     23 C14         4.8545   -0.1266   -0.2173 C.ar      1 <0>        -0.0672
     24 C15         6.0880   -0.7386   -0.2818 C.ar      1 <0>        -0.1264
     25 C16         7.0023   -0.5786    0.7499 C.ar      1 <0>         0.0296
     26 C17         6.6783    0.2077    1.8554 C.ar      1 <0>        -0.0074
     27 C18         5.4455    0.8286    1.9240 C.ar      1 <0>        -0.0817
     28 O4          7.7362    0.2030    2.7185 O.3       1 <0>        -0.2063
     29 C19         8.8606   -0.2563    1.9454 C.3       1 <0>         0.1067
     30 O5          8.2621   -1.0742    0.9229 O.3       1 <0>        -0.2044
     31 H3         -6.2616    7.0587    0.8994 H         1 <0>         0.0670
     32 H4         -6.3750    6.8965   -0.8695 H         1 <0>         0.0674
     33 H5         -7.6345    6.1905    0.1715 H         1 <0>         0.1111
     34 H6         -4.4870    7.4088   -0.1428 H         1 <0>         0.1424
     35 H7         -2.0505    7.6013   -0.3171 H         1 <0>         0.1366
     36 H8         -4.1757    3.1655    0.2278 H         1 <0>         0.1461
     37 H9          2.9552    1.9372    1.8078 H         1 <0>         0.1317
     38 H10         4.1440   -0.2573   -1.0201 H         1 <0>         0.1678
     39 H11         6.3421   -1.3485   -1.1362 H         1 <0>         0.1503
     40 H12         5.1937    1.4380    2.7794 H         1 <0>         0.1469
     41 H13         9.3894    0.5867    1.5006 H         1 <0>         0.0909
     42 H14         9.5344   -0.8489    2.5642 H         1 <0>         0.1328
@<TRIPOS>BOND
     1    1    2 1
     2    1   31 1
     3    1   32 1
     4    1   33 1
     5    2    3 1
     6    3    8 ar
     7    3    4 ar
     8    4    5 ar
     9    4   34 1
    10    5    6 ar
    11    5   35 1
    12    6   11 1
    13    6    7 ar
    14    7    8 ar
    15    7    9 1
    16    8   36 1
    17    9   18 1
    18    9   10 2
    19   10   11 1
    20   10   13 1
    21   11   12 1
    22   13   14 2
    23   13   15 am
    24   15   16 am
    25   15   20 1
    26   16   17 2
    27   16   18 am
    28   18   19 1
    29   20   21 2
    30   21   22 1
    31   21   37 1
    32   22   27 ar
    33   22   23 ar
    34   23   24 ar
    35   23   38 1
    36   24   25 ar
    37   24   39 1
    38   25   30 1
    39   25   26 ar
    40   26   27 ar
    41   26   28 1
    42   27   40 1
    43   28   29 1
    44   29   30 1
    45   29   41 1
    46   29   42 1
@<TRIPOS>MOLECULE
ZINC02282306
   42    44     0     0     0
SMALL
USER_CHARGES

@<TRIPOS>ATOM
      1 C1          7.8436   -6.9260   -0.1364 C.2       1 <0>        -0.3405
      2 C2          6.5879   -7.3859   -0.1238 C.2       1 <0>         0.1445
      3 C3          6.3347   -8.8383   -0.1296 C.2       1 <0>        -0.0272
      4 C4          7.2829   -9.8146   -0.1473 C.2       1 <0>        -0.1764
      5 C5          6.5978  -11.0452   -0.1465 C.2       1 <0>        -0.2201
      6 C6          5.2798  -10.7640   -0.1286 C.2       1 <0>        -0.0843
      7 O1          5.1244   -9.4303   -0.1125 O.3       1 <0>        -0.0564
      8 N1          5.5166   -6.4905   -0.1051 N.pl3     1 <0>        -0.2701
      9 N2          5.7572   -5.1103   -0.0995 N.am      1 <0>        -0.2654
     10 C7          4.7232   -4.2461   -0.0814 C.2       1 <0>         0.2875
     11 O2          3.5844   -4.6632   -0.0700 O.2       1 <0>        -0.3773
     12 C8          4.9820   -2.7615   -0.0754 C.3       1 <0>        -0.0171
     13 N3          3.7053   -2.0433   -0.0553 N.am      1 <0>        -0.3791
     14 C9          3.6903   -0.6956   -0.0468 C.2       1 <0>         0.3558
     15 O3          4.7363   -0.0759   -0.0558 O.2       1 <0>        -0.3751
     16 C10         2.4039    0.0280   -0.0265 C.ar      1 <0>        -0.1333
     17 C11         1.2007   -0.6820   -0.0160 C.ar      1 <0>        -0.1021
     18 C12         0.0021   -0.0041    0.0020 C.ar      1 <0>        -0.1341
     19 C13        -0.0168    1.3859    0.0097 C.ar      1 <0>         0.0429
     20 C14         1.1790    2.0995    0.0021 C.ar      1 <0>         0.0045
     21 C15         2.3859    1.4246   -0.0171 C.ar      1 <0>        -0.0602
     22 O4          1.1776    3.4608    0.0180 O.3       1 <0>        -0.2008
     23 C16        -0.0490    4.1072   -0.3391 C.3       1 <0>        -0.0521
     24 C17        -1.1941    3.4116    0.4092 C.3       1 <0>        -0.0534
     25 O5         -1.2121    2.0339    0.0189 O.3       1 <0>        -0.2021
     26 H1          8.6722   -7.6186   -0.1509 H         1 <0>         0.1344
     27 H2          8.0291   -5.8621   -0.1321 H         1 <0>         0.1143
     28 H3          8.3535   -9.6730   -0.1599 H         1 <0>         0.1627
     29 H4          7.0443  -12.0285   -0.1581 H         1 <0>         0.1601
     30 H5          4.4811  -11.4909   -0.1229 H         1 <0>         0.2016
     31 H6          4.6058   -6.8241   -0.0959 H         1 <0>         0.2832
     32 H7          6.6680   -4.7768   -0.1086 H         1 <0>         0.2572
     33 H8          5.5396   -2.4863   -0.9707 H         1 <0>         0.1145
     34 H9          5.5615   -2.4973    0.8091 H         1 <0>         0.1145
     35 H10         2.8708   -2.5377   -0.0481 H         1 <0>         0.2490
     36 H11         1.2106   -1.7619   -0.0225 H         1 <0>         0.1389
     37 H12        -0.9271   -0.5546    0.0099 H         1 <0>         0.1497
     38 H13         3.3139    1.9770   -0.0250 H         1 <0>         0.1712
     39 H14        -0.0076    5.1581   -0.0528 H         1 <0>         0.1240
     40 H15        -0.2083    4.0251   -1.4143 H         1 <0>         0.0957
     41 H16        -1.0308    3.4883    1.4842 H         1 <0>         0.0971
     42 H17        -2.1427    3.8799    0.1467 H         1 <0>         0.1237
@<TRIPOS>BOND
     1    1    2 2
     2    1   26 1
     3    1   27 1
     4    2    3 1
     5    2    8 1
     6    3    7 1
     7    3    4 2
     8    4    5 1
     9    4   28 1
    10    5    6 2
    11    5   29 1
    12    6    7 1
    13    6   30 1
    14    8    9 1
    15    8   31 1
    16    9   10 am
    17    9   32 1
    18   10   11 2
    19   10   12 1
    20   12   13 1
    21   12   33 1
    22   12   34 1
    23   13   14 am
    24   13   35 1
    25   14   15 2
    26   14   16 1
    27   16   21 ar
    28   16   17 ar
    29   17   18 ar
    30   17   36 1
    31   18   19 ar
    32   18   37 1
    33   19   25 1
    34   19   20 ar
    35   20   21 ar
    36   20   22 1
    37   21   38 1
    38   22   23 1
    39   23   24 1
    40   23   39 1
    41   23   40 1
    42   24   25 1
    43   24   41 1
    44   24   42 1
@<TRIPOS>MOLECULE
ZINC02282906
   43    46     0     0     0
SMALL
USER_CHARGES

@<TRIPOS>ATOM
      1 C1         -5.9697    5.1588    0.1581 C.3       1 <0>        -0.1697
      2 C2         -4.4700    5.2641    0.0530 C.ar      1 <0>        -0.1079
      3 C3         -3.8759    6.5100   -0.0992 C.ar      1 <0>        -0.0809
      4 C4         -2.5077    6.6279   -0.1968 C.ar      1 <0>        -0.1512
      5 C5         -1.7075    5.4889   -0.1443 C.ar      1 <0>         0.0508
      6 C6         -2.3147    4.2281    0.0100 C.ar      1 <0>        -0.1162
      7 C7         -3.7062    4.1337    0.1077 C.ar      1 <0>        -0.0656
      8 C8         -1.2315    3.2460    0.0299 C.2       1 <0>         0.0381
      9 C9         -0.0499    3.9509   -0.1107 C.2       1 <0>        -0.1476
     10 N1         -0.3459    5.3004   -0.2149 N.pl3     1 <0>        -0.1593
     11 H1          0.3094    6.0075   -0.3223 H         1 <0>         0.2607
     12 C10         1.1714    3.2306   -0.1241 C.2       1 <0>         0.3634
     13 O1          2.2306    3.8195   -0.2467 O.2       1 <0>        -0.3575
     14 N2          1.1501    1.8888   -0.0005 N.am      1 <0>        -0.2518
     15 C11        -0.0096    1.2227    0.1356 C.2       1 <0>         0.4085
     16 O2          0.0084    0.0115    0.2447 O.2       1 <0>        -0.3490
     17 N3         -1.1913    1.8684    0.1481 N.am      1 <0>        -0.2829
     18 H2         -2.0416    1.3508    0.2430 H         1 <0>         0.2748
     19 N4          2.3564    1.1764   -0.0136 N.2       1 <0>         0.0219
     20 C12         3.2099    1.3273    0.9528 C.2       1 <0>        -0.0229
     21 C13         4.5255    0.6673    0.8837 C.ar      1 <0>        -0.0606
     22 C14         5.4472    0.8275    1.9225 C.ar      1 <0>        -0.1225
     23 C15         6.6769    0.2084    1.8541 C.ar      1 <0>        -0.1095
     24 C16         7.0059   -0.5738    0.7599 C.ar      1 <0>        -0.1911
     25 C17         6.1024   -0.7416   -0.2773 C.ar      1 <0>         0.0609
     26 C18         4.8564   -0.1279   -0.2200 C.ar      1 <0>         0.0981
     27 O3          3.9660   -0.2949   -1.2327 O.3       1 <0>        -0.2516
     28 O4          6.4327   -1.5114   -1.3487 O.3       1 <0>        -0.1960
     29 C19         7.7272   -2.1165   -1.3385 C.3       1 <0>        -0.0652
     30 H3         -6.2662    5.2268    1.2048 H         1 <0>         0.0860
     31 H4         -6.4312    5.9709   -0.4037 H         1 <0>         0.0824
     32 H5         -6.2963    4.2026   -0.2507 H         1 <0>         0.0821
     33 H6         -4.4932    7.3952   -0.1408 H         1 <0>         0.1372
     34 H7         -2.0557    7.6017   -0.3147 H         1 <0>         0.1351
     35 H8         -4.1760    3.1685    0.2266 H         1 <0>         0.1318
     36 H9          2.9556    1.9366    1.8075 H         1 <0>         0.1313
     37 H10         5.1957    1.4358    2.7787 H         1 <0>         0.1365
     38 H11         7.3871    0.3338    2.6580 H         1 <0>         0.1357
     39 H12         7.9716   -1.0551    0.7145 H         1 <0>         0.1397
     40 H13         4.0418    0.3646   -1.9358 H         1 <0>         0.2374
     41 H14         8.4908   -1.3402   -1.2891 H         1 <0>         0.0654
     42 H15         7.8162   -2.7694   -0.4702 H         1 <0>         0.0693
     43 H16         7.8620   -2.7015   -2.2483 H         1 <0>         0.1121
@<TRIPOS>BOND
     1    1    2 1
     2    1   30 1
     3    1   31 1
     4    1   32 1
     5    2    7 ar
     6    2    3 ar
     7    3    4 ar
     8    3   33 1
     9    4    5 ar
    10    4   34 1
    11    5   10 1
    12    5    6 ar
    13    6    7 ar
    14    6    8 1
    15    7   35 1
    16    8   17 1
    17    8    9 2
    18    9   10 1
    19    9   12 1
    20   10   11 1
    21   12   13 2
    22   12   14 am
    23   14   15 am
    24   14   19 1
    25   15   16 2
    26   15   17 am
    27   17   18 1
    28   19   20 2
    29   20   21 1
    30   20   36 1
    31   21   26 ar
    32   21   22 ar
    33   22   23 ar
    34   22   37 1
    35   23   24 ar
    36   23   38 1
    37   24   25 ar
    38   24   39 1
    39   25   26 ar
    40   25   28 1
    41   26   27 1
    42   27   40 1
    43   28   29 1
    44   29   41 1
    45   29   42 1
    46   29   43 1
@<TRIPOS>MOLECULE
ZINC02283905
   40    43     0     0     0
SMALL
USER_CHARGES

@<TRIPOS>ATOM
      1 C1         -7.1874    1.0272   -3.9793 C.3       1 <0>        -0.0662
      2 O1         -7.5669    0.1861   -2.8882 O.3       1 <0>        -0.1984
      3 C2         -6.6694    0.0449   -1.8763 C.ar      1 <0>         0.0626
      4 C3         -5.4540    0.7006   -1.9341 C.ar      1 <0>        -0.1806
      5 C4         -4.5343    0.5535   -0.8923 C.ar      1 <0>        -0.0400
      6 C5         -4.8459   -0.2599    0.2004 C.ar      1 <0>        -0.0974
      7 C6         -6.0622   -0.9069    0.2533 C.ar      1 <0>        -0.1325
      8 C7         -6.9753   -0.7603   -0.7811 C.ar      1 <0>         0.0677
      9 O2         -8.1710   -1.4042   -0.7262 O.3       1 <0>        -0.2764
     10 C8         -3.2365    1.2499   -0.9487 C.2       1 <0>        -0.0170
     11 N1         -2.3834    1.1122    0.0200 N.2       1 <0>        -0.0022
     12 N2         -1.1968    1.8571    0.0196 N.am      1 <0>        -0.2492
     13 C9         -1.2549    3.1959    0.1628 C.2       1 <0>         0.3634
     14 O3         -2.3302    3.7539    0.2907 O.2       1 <0>        -0.3494
     15 C10        -0.0541    3.9500    0.1567 C.2       1 <0>        -0.1455
     16 C11         1.1460    3.2790    0.0087 C.2       1 <0>         0.0367
     17 C12         2.2022    4.2899    0.0384 C.ar      1 <0>        -0.1200
     18 C13         3.5956    4.2332   -0.0617 C.ar      1 <0>        -0.0639
     19 C14         4.3291    5.3830    0.0033 C.ar      1 <0>        -0.1605
     20 C15         3.7018    6.6109    0.1683 C.ar      1 <0>        -0.0826
     21 C16         2.3310    6.6914    0.2692 C.ar      1 <0>        -0.1532
     22 C17         1.5613    5.5321    0.2057 C.ar      1 <0>         0.0550
     23 N3          0.2052    5.3058    0.2746 N.pl3     1 <0>        -0.1584
     24 H1         -0.4689    5.9938    0.3893 H         1 <0>         0.2619
     25 N4          1.1440    1.9026   -0.1286 N.am      1 <0>        -0.2818
     26 H2          2.0080    1.4106   -0.2360 H         1 <0>         0.2754
     27 C18        -0.0189    1.2238   -0.1179 C.2       1 <0>         0.4103
     28 O4         -0.0037    0.0139   -0.2402 O.2       1 <0>        -0.3576
     29 H3         -7.9912    1.0526   -4.7151 H         1 <0>         0.1121
     30 H4         -6.9990    2.0360   -3.6120 H         1 <0>         0.0704
     31 H5         -6.2825    0.6345   -4.4431 H         1 <0>         0.0654
     32 H6         -5.2159    1.3253   -2.7823 H         1 <0>         0.1413
     33 H7         -4.1353   -0.3791    1.0050 H         1 <0>         0.1622
     34 H8         -6.3033   -1.5324    1.1001 H         1 <0>         0.1509
     35 H9         -8.1613   -2.2862   -1.1224 H         1 <0>         0.2291
     36 H10        -2.9953    1.8747   -1.7960 H         1 <0>         0.1290
     37 H11         4.0907    3.2820   -0.1904 H         1 <0>         0.1306
     38 H12         5.4053    5.3372   -0.0738 H         1 <0>         0.1361
     39 H13         4.2952    7.5119    0.2182 H         1 <0>         0.1369
     40 H14         1.8535    7.6515    0.3976 H         1 <0>         0.1357
@<TRIPOS>BOND
     1    1    2 1
     2    1   29 1
     3    1   30 1
     4    1   31 1
     5    2    3 1
     6    3    8 ar
     7    3    4 ar
     8    4    5 ar
     9    4   32 1
    10    5    6 ar
    11    5   10 1
    12    6    7 ar
    13    6   33 1
    14    7    8 ar
    15    7   34 1
    16    8    9 1
    17    9   35 1
    18   10   11 2
    19   10   36 1
    20   11   12 1
    21   12   27 am
    22   12   13 am
    23   13   14 2
    24   13   15 1
    25   15   23 1
    26   15   16 2
    27   16   17 1
    28   16   25 1
    29   17   22 ar
    30   17   18 ar
    31   18   19 ar
    32   18   37 1
    33   19   20 ar
    34   19   38 1
    35   20   21 ar
    36   20   39 1
    37   21   22 ar
    38   21   40 1
    39   22   23 1
    40   23   24 1
    41   25   26 1
    42   25   27 am
    43   27   28 2
@<TRIPOS>MOLECULE
ZINC02285496
   40    43     0     0     0
SMALL
USER_CHARGES

@<TRIPOS>ATOM
      1 C1         -6.5693    6.4045    0.0859 C.3       1 <0>        -0.0624
      2 O1         -5.8310    5.1827    0.1503 O.3       1 <0>        -0.2109
      3 C2         -4.4775    5.2735    0.0543 C.ar      1 <0>         0.0647
      4 C3         -3.8750    6.5200   -0.0998 C.ar      1 <0>        -0.1655
      5 C4         -2.5067    6.6295   -0.1976 C.ar      1 <0>        -0.1158
      6 C5         -1.7093    5.4889   -0.1448 C.ar      1 <0>         0.0234
      7 C6         -2.3149    4.2281    0.0103 C.ar      1 <0>        -0.0824
      8 C7         -3.7066    4.1308    0.1094 C.ar      1 <0>        -0.1075
      9 C8         -1.2313    3.2463    0.0299 C.2       1 <0>         0.0294
     10 C9         -0.0497    3.9511   -0.1117 C.2       1 <0>        -0.1369
     11 N1         -0.3454    5.3003   -0.2162 N.pl3     1 <0>        -0.1601
     12 H1          0.3098    6.0074   -0.3242 H         1 <0>         0.2612
     13 C10         1.1715    3.2306   -0.1250 C.2       1 <0>         0.3625
     14 O2          2.2308    3.8193   -0.2484 O.2       1 <0>        -0.3494
     15 N2          1.1501    1.8888   -0.0005 N.am      1 <0>        -0.2481
     16 C11        -0.0096    1.2227    0.1356 C.2       1 <0>         0.4101
     17 O3          0.0084    0.0116    0.2447 O.2       1 <0>        -0.3582
     18 N3         -1.1913    1.8685    0.1481 N.am      1 <0>        -0.2813
     19 H2         -2.0417    1.3510    0.2430 H         1 <0>         0.2764
     20 N4          2.3563    1.1764   -0.0136 N.2       1 <0>        -0.0071
     21 C12         3.2098    1.3272    0.9528 C.2       1 <0>        -0.0152
     22 C13         4.5257    0.6670    0.8836 C.ar      1 <0>        -0.0783
     23 C14         4.8546   -0.1267   -0.2187 C.ar      1 <0>        -0.0602
     24 C15         6.0878   -0.7381   -0.2813 C.ar      1 <0>        -0.1656
     25 C16         6.9995   -0.5752    0.7540 C.ar      1 <0>         0.0953
     26 C17         6.6749    0.2084    1.8542 C.ar      1 <0>        -0.1650
     27 C18         5.4461    0.8279    1.9229 C.ar      1 <0>        -0.0814
     28 O4          8.2118   -1.1844    0.6907 O.3       1 <0>        -0.2921
     29 H3         -6.2611    7.0587    0.9013 H         1 <0>         0.0670
     30 H4         -6.3757    6.8962   -0.8675 H         1 <0>         0.0675
     31 H5         -7.6344    6.1904    0.1745 H         1 <0>         0.1110
     32 H6         -4.4872    7.4086   -0.1425 H         1 <0>         0.1423
     33 H7         -2.0506    7.6013   -0.3161 H         1 <0>         0.1366
     34 H8         -4.1757    3.1654    0.2289 H         1 <0>         0.1459
     35 H9          2.9556    1.9365    1.8075 H         1 <0>         0.1299
     36 H10         4.1447   -0.2575   -1.0221 H         1 <0>         0.1616
     37 H11         6.3445   -1.3480   -1.1349 H         1 <0>         0.1465
     38 H12         7.3867    0.3320    2.6570 H         1 <0>         0.1441
     39 H13         5.1945    1.4367    2.7788 H         1 <0>         0.1359
     40 H14         8.2277   -2.0701    1.0787 H         1 <0>         0.2321
@<TRIPOS>BOND
     1    1    2 1
     2    1   29 1
     3    1   30 1
     4    1   31 1
     5    2    3 1
     6    3    8 ar
     7    3    4 ar
     8    4    5 ar
     9    4   32 1
    10    5    6 ar
    11    5   33 1
    12    6   11 1
    13    6    7 ar
    14    7    8 ar
    15    7    9 1
    16    8   34 1
    17    9   18 1
    18    9   10 2
    19   10   11 1
    20   10   13 1
    21   11   12 1
    22   13   14 2
    23   13   15 am
    24   15   16 am
    25   15   20 1
    26   16   17 2
    27   16   18 am
    28   18   19 1
    29   20   21 2
    30   21   22 1
    31   21   35 1
    32   22   27 ar
    33   22   23 ar
    34   23   24 ar
    35   23   36 1
    36   24   25 ar
    37   24   37 1
    38   25   26 ar
    39   25   28 1
    40   26   27 ar
    41   26   38 1
    42   27   39 1
    43   28   40 1
@<TRIPOS>MOLECULE
ZINC02285620
   42    43     0     0     0
SMALL
USER_CHARGES

@<TRIPOS>ATOM
      1 C1          6.4188   -0.6812   -2.1033 C.3       1 <0>        -0.1819
      2 C2          5.1985   -0.9764   -1.2696 C.ar      1 <0>        -0.0172
      3 C3          5.2142   -0.7291    0.0903 C.ar      1 <0>        -0.1465
      4 C4          4.0949   -0.9999    0.8550 C.ar      1 <0>        -0.0033
      5 C5          2.9596   -1.5171    0.2596 C.ar      1 <0>        -0.7409
      6 C6          2.9456   -1.7689   -1.0996 C.ar      1 <0>        -0.0253
      7 C7          4.0634   -1.4940   -1.8650 C.ar      1 <0>        -0.1499
      8 S1          1.5329   -1.8622    1.2343 S.o2      1 <0>         2.7660
      9 O1          1.9882   -2.0553    2.5664 O.2       1 <0>        -0.9254
     10 O2          0.7906   -2.8497    0.5322 O.2       1 <0>        -0.9154
     11 N1          0.6043   -0.4911    1.2455 N.pl3     1 <0>        -0.8663
     12 C8          0.0021   -0.0041    0.0020 C.3       1 <0>         0.1129
     13 H1          0.5883   -0.3548   -0.8473 H         1 <0>         0.1222
     14 C9         -0.0187    1.5258    0.0104 C.3       1 <0>        -0.1920
     15 C10         1.3951    2.0474   -0.0003 C.2       1 <0>         0.2986
     16 O3          2.3275    1.2719   -0.0133 O.2       1 <0>        -0.3470
     17 N2          1.6234    3.3757    0.0047 N.am      1 <0>        -0.3329
     18 N3          2.9049    3.8485   -0.0050 N.3       1 <0>        -0.2121
     19 C11        -1.4075   -0.5249   -0.1112 C.ar      1 <0>        -0.1020
     20 C12        -2.2154   -0.5818    1.0091 C.ar      1 <0>        -0.1083
     21 C13        -3.5098   -1.0555    0.9044 C.ar      1 <0>        -0.1265
     22 C14        -3.9932   -1.4813   -0.3186 C.ar      1 <0>        -0.1205
     23 C15        -3.1837   -1.4290   -1.4380 C.ar      1 <0>        -0.1240
     24 C16        -1.8907   -0.9512   -1.3341 C.ar      1 <0>        -0.1078
     25 H2          7.0591   -1.5627   -2.1350 H         1 <0>         0.0885
     26 H3          6.1122   -0.4181   -3.1157 H         1 <0>         0.0843
     27 H4          6.9676    0.1508   -1.6621 H         1 <0>         0.0847
     28 H5          6.1011   -0.3247    0.5555 H         1 <0>         0.1306
     29 H6          4.1073   -0.8071    1.9176 H         1 <0>         0.1427
     30 H7          2.0601   -2.1771   -1.5640 H         1 <0>         0.1407
     31 H8          4.0511   -1.6869   -2.9276 H         1 <0>         0.1305
     32 H9          0.4591   -0.0105    2.0755 H         1 <0>         0.2380
     33 H10        -0.5459    1.8868   -0.8726 H         1 <0>         0.1160
     34 H11        -0.5289    1.8773    0.9072 H         1 <0>         0.1050
     35 H12         0.8777    3.9959    0.0151 H         1 <0>         0.2213
     36 H13         2.9182    4.8574    0.0003 H         1 <0>         0.1556
     37 H14         3.4337    3.4759    0.7693 H         1 <0>         0.1610
     38 H15        -1.8364   -0.2529    1.9654 H         1 <0>         0.1260
     39 H16        -4.1424   -1.0961    1.7789 H         1 <0>         0.1301
     40 H17        -5.0034   -1.8546   -0.3998 H         1 <0>         0.1297
     41 H18        -3.5614   -1.7617   -2.3935 H         1 <0>         0.1311
     42 H19        -1.2582   -0.9106   -2.2086 H         1 <0>         0.1297
@<TRIPOS>BOND
     1    1    2 1
     2    1   25 1
     3    1   26 1
     4    1   27 1
     5    2    7 ar
     6    2    3 ar
     7    3    4 ar
     8    3   28 1
     9    4    5 ar
    10    4   29 1
    11    5    6 ar
    12    5    8 1
    13    6    7 ar
    14    6   30 1
    15    7   31 1
    16    8    9 2
    17    8   10 2
    18    8   11 1
    19   11   12 1
    20   11   32 1
    21   12   13 1
    22   12   14 1
    23   12   19 1
    24   14   15 1
    25   14   33 1
    26   14   34 1
    27   15   16 2
    28   15   17 am
    29   17   18 1
    30   17   35 1
    31   18   36 1
    32   18   37 1
    33   19   24 ar
    34   19   20 ar
    35   20   21 ar
    36   20   38 1
    37   21   22 ar
    38   21   39 1
    39   22   23 ar
    40   22   40 1
    41   23   24 ar
    42   23   41 1
    43   24   42 1
@<TRIPOS>MOLECULE
ZINC02286082
   40    43     0     0     0
SMALL
USER_CHARGES

@<TRIPOS>ATOM
      1 C1         -7.8634   -1.9915   -1.2275 C.3       1 <0>        -0.0652
      2 O1         -6.7138   -1.1431   -1.2542 O.3       1 <0>        -0.1959
      3 C2         -5.8651   -1.2198   -0.1943 C.ar      1 <0>         0.0609
      4 C3         -6.1348   -2.0932    0.8477 C.ar      1 <0>        -0.1907
      5 C4         -5.2757   -2.1769    1.9298 C.ar      1 <0>        -0.1095
      6 C5         -4.1434   -1.3918    1.9821 C.ar      1 <0>        -0.1224
      7 C6         -3.8584   -0.5065    0.9389 C.ar      1 <0>        -0.0607
      8 C7         -4.7305   -0.4183   -0.1532 C.ar      1 <0>         0.0979
      9 O2         -4.4662    0.4434   -1.1701 O.3       1 <0>        -0.2516
     10 C8         -2.6494    0.3343    0.9908 C.2       1 <0>        -0.0227
     11 N1         -2.3878    1.1555    0.0200 N.2       1 <0>         0.0219
     12 N2         -1.1858    1.8752    0.0161 N.am      1 <0>        -0.2516
     13 C9         -0.0188    1.2157   -0.1235 C.2       1 <0>         0.3633
     14 O3         -0.0089    0.0037   -0.2457 O.2       1 <0>        -0.3572
     15 C10         1.1970    1.9453   -0.1328 C.2       1 <0>        -0.1477
     16 C11         1.1438    3.3201    0.0081 C.2       1 <0>         0.0391
     17 C12         2.5232    3.8034   -0.0368 C.ar      1 <0>        -0.1203
     18 C13         3.1058    5.0714    0.0504 C.ar      1 <0>        -0.0632
     19 C14         4.4627    5.2031   -0.0273 C.ar      1 <0>        -0.1614
     20 C15         5.2712    4.0863   -0.1936 C.ar      1 <0>        -0.0828
     21 C16         4.7202    2.8278   -0.2825 C.ar      1 <0>        -0.1540
     22 C17         3.3386    2.6682   -0.2054 C.ar      1 <0>         0.0549
     23 N3          2.5220    1.5614   -0.2608 N.pl3     1 <0>        -0.1593
     24 H1          2.8288    0.6481   -0.3731 H         1 <0>         0.2611
     25 N4         -0.0834    3.9417    0.1536 N.am      1 <0>        -0.2830
     26 H2         -0.1304    4.9354    0.2557 H         1 <0>         0.2749
     27 C18        -1.2149    3.2117    0.1581 C.2       1 <0>         0.4084
     28 O4         -2.2857    3.7737    0.2874 O.2       1 <0>        -0.3486
     29 H3         -8.4542   -1.8313   -2.1294 H         1 <0>         0.1121
     30 H4         -7.5453   -3.0331   -1.1818 H         1 <0>         0.0654
     31 H5         -8.4675   -1.7573   -0.3510 H         1 <0>         0.0693
     32 H6         -7.0194   -2.7119    0.8149 H         1 <0>         0.1398
     33 H7         -5.4936   -2.8602    2.7373 H         1 <0>         0.1358
     34 H8         -3.4770   -1.4608    2.8293 H         1 <0>         0.1365
     35 H9         -3.9326    0.0616   -1.8804 H         1 <0>         0.2374
     36 H10        -1.9809    0.2673    1.8364 H         1 <0>         0.1313
     37 H11         2.4840    5.9449    0.1798 H         1 <0>         0.1308
     38 H12         4.9105    6.1834    0.0407 H         1 <0>         0.1357
     39 H13         6.3429    4.2063   -0.2541 H         1 <0>         0.1364
     40 H14         5.3579    1.9659   -0.4121 H         1 <0>         0.1351
@<TRIPOS>BOND
     1    1    2 1
     2    1   29 1
     3    1   30 1
     4    1   31 1
     5    2    3 1
     6    3    8 ar
     7    3    4 ar
     8    4    5 ar
     9    4   32 1
    10    5    6 ar
    11    5   33 1
    12    6    7 ar
    13    6   34 1
    14    7    8 ar
    15    7   10 1
    16    8    9 1
    17    9   35 1
    18   10   11 2
    19   10   36 1
    20   11   12 1
    21   12   27 am
    22   12   13 am
    23   13   14 2
    24   13   15 1
    25   15   23 1
    26   15   16 2
    27   16   17 1
    28   16   25 1
    29   17   22 ar
    30   17   18 ar
    31   18   19 ar
    32   18   37 1
    33   19   20 ar
    34   19   38 1
    35   20   21 ar
    36   20   39 1
    37   21   22 ar
    38   21   40 1
    39   22   23 1
    40   23   24 1
    41   25   26 1
    42   25   27 am
    43   27   28 2
@<TRIPOS>MOLECULE
ZINC02288808
   42    44     0     0     0
SMALL
USER_CHARGES

@<TRIPOS>ATOM
      1 C1         -2.6936    3.2784    3.1361 C.3       1 <0>        -0.1559
      2 C2         -1.6491    3.9478    2.2806 C.ar      1 <0>        -0.0922
      3 C3         -0.7196    3.1779    1.5566 C.ar      1 <0>        -0.0362
      4 C4         -0.7129    1.7774    1.5820 C.ar      1 <0>        -0.1116
      5 C5          0.2219    1.0997    0.8572 C.ar      1 <0>        -0.1076
      6 C6          1.1624    1.7776    0.0851 C.ar      1 <0>        -0.1199
      7 C7          1.1802    3.1403    0.0338 C.ar      1 <0>        -0.1049
      8 C8          0.2386    3.8675    0.7692 C.ar      1 <0>        -0.1017
      9 C9          0.1919    5.2804    0.7675 C.ar      1 <0>         0.1122
     10 N1         -0.7323    5.8867    1.4918 N.ar      1 <0>        -0.1287
     11 N2         -1.5940    5.2572    2.2002 N.ar      1 <0>        -0.0252
     12 N3          1.0982    6.0160    0.0198 N.pl3     1 <0>        -0.2749
     13 C10         0.9698    7.3992   -0.0652 C.ar      1 <0>         0.0933
     14 C11        -0.2944    7.9817   -0.0480 C.ar      1 <0>        -0.1371
     15 C12        -0.4245    9.3496   -0.1262 C.ar      1 <0>        -0.0827
     16 C13         0.7141   10.1534   -0.2339 C.ar      1 <0>        -0.1498
     17 C14         1.9819    9.5650   -0.2565 C.ar      1 <0>        -0.0465
     18 C15         2.1056    8.1969   -0.1728 C.ar      1 <0>        -0.1819
     19 C16         0.5780   11.6198   -0.3229 C.2       1 <0>         0.3501
     20 O1          1.5692   12.3178   -0.4162 O.2       1 <0>        -0.3793
     21 N4         -0.6450   12.1856   -0.3010 N.am      1 <0>        -0.3834
     22 C17        -0.7802   13.6417   -0.3894 C.3       1 <0>         0.0013
     23 C18        -2.2619   14.0201   -0.3427 C.3       1 <0>        -0.0215
     24 O2         -2.8038   13.6669    0.9314 O.3       1 <0>        -0.3520
     25 H1         -3.5879    3.0948    2.5406 H         1 <0>         0.0929
     26 H2         -2.3049    2.3310    3.5095 H         1 <0>         0.0819
     27 H3         -2.9436    3.9253    3.9771 H         1 <0>         0.1040
     28 H4         -1.4394    1.2395    2.1730 H         1 <0>         0.1442
     29 H5          0.2307    0.0199    0.8786 H         1 <0>         0.1353
     30 H6          1.8890    1.2150   -0.4823 H         1 <0>         0.1350
     31 H7          1.9149    3.6533   -0.5690 H         1 <0>         0.1297
     32 H8          1.8219    5.5667   -0.4442 H         1 <0>         0.2458
     33 H9         -1.1739    7.3599    0.0311 H         1 <0>         0.1642
     34 H10        -1.4053    9.8012   -0.1084 H         1 <0>         0.1309
     35 H11         2.8635   10.1834   -0.3393 H         1 <0>         0.1578
     36 H12         3.0848    7.7417   -0.1903 H         1 <0>         0.1329
     37 H13        -1.4358   11.6288   -0.2266 H         1 <0>         0.2299
     38 H14        -0.2599   14.1064    0.4481 H         1 <0>         0.1083
     39 H15        -0.3454   13.9907   -1.3260 H         1 <0>         0.0982
     40 H16        -2.3677   15.0939   -0.4975 H         1 <0>         0.0717
     41 H17        -2.7983   13.4855   -1.1266 H         1 <0>         0.0609
     42 H18        -3.7420   13.8786    1.0322 H         1 <0>         0.2123
@<TRIPOS>BOND
     1    1    2 1
     2    1   25 1
     3    1   26 1
     4    1   27 1
     5    2   11 ar
     6    2    3 ar
     7    3    8 ar
     8    3    4 ar
     9    4    5 ar
    10    4   28 1
    11    5    6 ar
    12    5   29 1
    13    6    7 ar
    14    6   30 1
    15    7    8 ar
    16    7   31 1
    17    8    9 ar
    18    9   10 ar
    19    9   12 1
    20   10   11 ar
    21   12   13 1
    22   12   32 1
    23   13   18 ar
    24   13   14 ar
    25   14   15 ar
    26   14   33 1
    27   15   16 ar
    28   15   34 1
    29   16   17 ar
    30   16   19 1
    31   17   18 ar
    32   17   35 1
    33   18   36 1
    34   19   20 2
    35   19   21 am
    36   21   22 1
    37   21   37 1
    38   22   23 1
    39   22   38 1
    40   22   39 1
    41   23   24 1
    42   23   40 1
    43   23   41 1
    44   24   42 1
@<TRIPOS>MOLECULE
ZINC02293438
   44    46     0     0     0
SMALL
USER_CHARGES

@<TRIPOS>ATOM
      1 C1         -3.8094   -3.5487   -1.3669 C.3       1 <0>        -0.1979
      2 C2         -2.3095   -3.4743   -1.4917 C.2       1 <0>         0.1519
      3 C3         -1.6472   -2.3929   -1.0313 C.2       1 <0>        -0.4234
      4 C4         -0.2368   -2.3378   -1.1179 C.2       1 <0>         0.3813
      5 O1          0.3837   -3.2875   -1.5611 O.2       1 <0>        -0.4149
      6 N1          0.4208   -1.2343   -0.7101 N.am      1 <0>        -0.3074
      7 C5          1.8193   -1.1910   -0.7682 C.ar      1 <0>         0.0701
      8 C6          2.5453   -2.3667   -0.9050 C.ar      1 <0>        -0.1494
      9 C7          3.9250   -2.3250   -0.9679 C.ar      1 <0>        -0.0927
     10 C8          4.5885   -1.1115   -0.8841 C.ar      1 <0>        -0.0239
     11 C9          3.8633    0.0690   -0.7411 C.ar      1 <0>         0.0218
     12 C10         2.4802    0.0268   -0.6834 C.ar      1 <0>        -0.1625
     13 O2          4.7389    1.1146   -0.6820 O.3       1 <0>        -0.2110
     14 C11         6.0186    0.5282   -0.3792 C.3       1 <0>         0.1080
     15 O3          5.9193   -0.8047   -0.9146 O.3       1 <0>        -0.2097
     16 N2         -1.6200   -4.5025   -2.0714 N.pl3     1 <0>        -0.2092
     17 N3         -2.3025   -5.6457   -2.5073 N.am      1 <0>        -0.2941
     18 C12        -1.6143   -6.6940   -3.0011 C.2       1 <0>         0.3706
     19 O4         -0.3984   -6.6798   -2.9964 O.2       1 <0>        -0.3832
     20 C13        -2.3358   -7.8581   -3.5471 C.ar      1 <0>        -0.2282
     21 C14        -3.7252   -7.9441   -3.4262 C.ar      1 <0>        -0.0544
     22 C15        -4.3939   -9.0320   -3.9427 C.ar      1 <0>        -0.2027
     23 C16        -3.6947  -10.0491   -4.5735 C.ar      1 <0>        -0.0485
     24 C17        -2.3223   -9.9816   -4.6963 C.ar      1 <0>        -0.2258
     25 C18        -1.6307   -8.8896   -4.1864 C.ar      1 <0>         0.1905
     26 N4         -0.2491   -8.8194   -4.3083 N.pl3     1 <0>        -0.3962
     27 H1         -4.2699   -3.1154   -2.2548 H         1 <0>         0.1036
     28 H2         -4.1148   -4.5907   -1.2710 H         1 <0>         0.0811
     29 H3         -4.1286   -2.9939   -0.4846 H         1 <0>         0.1078
     30 H4         -2.1941   -1.5693   -0.5967 H         1 <0>         0.1412
     31 H5         -0.0748   -0.4686   -0.3800 H         1 <0>         0.2355
     32 H6          2.0309   -3.3143   -0.9664 H         1 <0>         0.2018
     33 H7          4.4874   -3.2403   -1.0784 H         1 <0>         0.1461
     34 H8          1.9160    0.9411   -0.5729 H         1 <0>         0.1388
     35 H9          6.1802    0.4971    0.6983 H         1 <0>         0.0850
     36 H10         6.8190    1.0801   -0.8718 H         1 <0>         0.1271
     37 H11        -0.6582   -4.4405   -2.1809 H         1 <0>         0.3286
     38 H12        -3.2703   -5.6827   -2.4536 H         1 <0>         0.2482
     39 H13        -4.2746   -7.1565   -2.9320 H         1 <0>         0.1157
     40 H14        -5.4683   -9.0949   -3.8520 H         1 <0>         0.1312
     41 H15        -4.2278  -10.9001   -4.9712 H         1 <0>         0.1315
     42 H16        -1.7849  -10.7784   -5.1889 H         1 <0>         0.1365
     43 H17         0.2294   -8.0479   -3.9666 H         1 <0>         0.2668
     44 H18         0.2374   -9.5419   -4.7352 H         1 <0>         0.2147
@<TRIPOS>BOND
     1    1    2 1
     2    1   27 1
     3    1   28 1
     4    1   29 1
     5    2    3 2
     6    2   16 1
     7    3    4 1
     8    3   30 1
     9    4    5 2
    10    4    6 am
    11    6    7 1
    12    6   31 1
    13    7   12 ar
    14    7    8 ar
    15    8    9 ar
    16    8   32 1
    17    9   10 ar
    18    9   33 1
    19   10   15 1
    20   10   11 ar
    21   11   12 ar
    22   11   13 1
    23   12   34 1
    24   13   14 1
    25   14   15 1
    26   14   35 1
    27   14   36 1
    28   16   17 1
    29   16   37 1
    30   17   18 am
    31   17   38 1
    32   18   19 2
    33   18   20 1
    34   20   25 ar
    35   20   21 ar
    36   21   22 ar
    37   21   39 1
    38   22   23 ar
    39   22   40 1
    40   23   24 ar
    41   23   41 1
    42   24   25 ar
    43   24   42 1
    44   25   26 1
    45   26   43 1
    46   26   44 1
@<TRIPOS>MOLECULE
ZINC02294211
   42    44     0     0     0
SMALL
USER_CHARGES

@<TRIPOS>ATOM
      1 C1         10.3778   -3.7132    1.1269 C.3       1 <0>        -0.0612
      2 O1          9.8031   -4.0337   -0.1416 O.3       1 <0>        -0.2160
      3 C2          8.6303   -4.7221   -0.1319 C.ar      1 <0>         0.0832
      4 C3          8.6403   -6.1156   -0.1401 C.ar      1 <0>         0.0651
      5 C4          7.4463   -6.8212   -0.1303 C.ar      1 <0>        -0.1242
      6 C5          6.2431   -6.1470   -0.1060 C.ar      1 <0>        -0.1067
      7 C6          6.2254   -4.7503   -0.1030 C.ar      1 <0>         0.0090
      8 C7          7.4288   -4.0396   -0.1134 C.ar      1 <0>        -0.0782
      9 N1          7.4165   -2.5594   -0.1041 N.pl3     1 <0>         0.5673
     10 O2          7.4243   -1.9569    0.9544 O.2       1 <0>        -0.3415
     11 O3          7.3984   -1.9439   -1.1550 O.3       1 <0>        -0.3106
     12 C8          4.9406   -4.0276   -0.0827 C.2       1 <0>        -0.1483
     13 N2          4.9261   -2.7297   -0.0745 N.2       1 <0>         0.0343
     14 N3          3.7051   -2.0429   -0.0552 N.am      1 <0>        -0.3198
     15 C9          3.6900   -0.6953   -0.0467 C.2       1 <0>         0.3609
     16 O4          4.7364   -0.0753   -0.0558 O.2       1 <0>        -0.2877
     17 C10         2.4040    0.0281   -0.0264 C.ar      1 <0>        -0.1307
     18 C11         1.2007   -0.6820   -0.0160 C.ar      1 <0>        -0.1099
     19 C12         0.0021   -0.0041    0.0020 C.ar      1 <0>        -0.1331
     20 C13        -0.0168    1.3859    0.0097 C.ar      1 <0>         0.0435
     21 C14         1.1790    2.0996    0.0021 C.ar      1 <0>         0.0092
     22 C15         2.3859    1.4249   -0.0171 C.ar      1 <0>        -0.0555
     23 O5          1.1774    3.4610    0.0181 O.3       1 <0>        -0.1980
     24 C16        -0.0492    4.1073   -0.3388 C.3       1 <0>        -0.0522
     25 C17        -1.1942    3.4115    0.4095 C.3       1 <0>        -0.0539
     26 O6         -1.2122    2.0339    0.0189 O.3       1 <0>        -0.2022
     27 O7          9.8232   -6.7850   -0.1584 O.3       1 <0>        -0.2678
     28 H1          9.6815   -3.0973    1.6960 H         1 <0>         0.0850
     29 H2         10.5822   -4.6324    1.6758 H         1 <0>         0.0518
     30 H3         11.3080   -3.1654    0.9763 H         1 <0>         0.1189
     31 H4          7.4586   -7.9011   -0.1374 H         1 <0>         0.1546
     32 H5          5.3149   -6.6990   -0.0934 H         1 <0>         0.1485
     33 H6          4.0115   -4.5781   -0.0746 H         1 <0>         0.1264
     34 H7          2.8706   -2.5373   -0.0480 H         1 <0>         0.2126
     35 H8          1.2106   -1.7620   -0.0224 H         1 <0>         0.1254
     36 H9         -0.9271   -0.5546    0.0099 H         1 <0>         0.1482
     37 H10         3.3139    1.9774   -0.0256 H         1 <0>         0.1768
     38 H11        -0.0079    5.1582   -0.0523 H         1 <0>         0.1258
     39 H12        -0.2086    4.0254   -1.4139 H         1 <0>         0.0967
     40 H13        -1.0308    3.4881    1.4845 H         1 <0>         0.0977
     41 H14        -2.1429    3.8798    0.1471 H         1 <0>         0.1246
     42 H15        10.1762   -6.9838    0.7197 H         1 <0>         0.2317
@<TRIPOS>BOND
     1    1    2 1
     2    1   28 1
     3    1   29 1
     4    1   30 1
     5    2    3 1
     6    3    8 ar
     7    3    4 ar
     8    4    5 ar
     9    4   27 1
    10    5    6 ar
    11    5   31 1
    12    6    7 ar
    13    6   32 1
    14    7    8 ar
    15    7   12 1
    16    8    9 1
    17    9   10 2
    18    9   11 1
    19   12   13 2
    20   12   33 1
    21   13   14 1
    22   14   15 am
    23   14   34 1
    24   15   16 2
    25   15   17 1
    26   17   22 ar
    27   17   18 ar
    28   18   19 ar
    29   18   35 1
    30   19   20 ar
    31   19   36 1
    32   20   26 1
    33   20   21 ar
    34   21   22 ar
    35   21   23 1
    36   22   37 1
    37   23   24 1
    38   24   25 1
    39   24   38 1
    40   24   39 1
    41   25   26 1
    42   25   40 1
    43   25   41 1
    44   27   42 1
@<TRIPOS>MOLECULE
ZINC02295145
   44    47     0     0     0
SMALL
USER_CHARGES

@<TRIPOS>ATOM
      1 C1         -6.5695    6.4042    0.0853 C.3       1 <0>        -0.0623
      2 O1         -5.8312    5.1824    0.1493 O.3       1 <0>        -0.2110
      3 C2         -4.4776    5.2733    0.0541 C.ar      1 <0>         0.0639
      4 C3         -3.8750    6.5199   -0.0987 C.ar      1 <0>        -0.1656
      5 C4         -2.5068    6.6294   -0.1977 C.ar      1 <0>        -0.1167
      6 C5         -1.7093    5.4889   -0.1442 C.ar      1 <0>         0.0236
      7 C6         -2.3150    4.2280    0.0101 C.ar      1 <0>        -0.0831
      8 C7         -3.7067    4.1306    0.1088 C.ar      1 <0>        -0.1065
      9 C8         -1.2313    3.2463    0.0299 C.2       1 <0>         0.0320
     10 C9         -0.0497    3.9511   -0.1107 C.2       1 <0>        -0.1392
     11 N1         -0.3454    5.3004   -0.2150 N.pl3     1 <0>        -0.1612
     12 H1          0.3098    6.0076   -0.3221 H         1 <0>         0.2604
     13 C10         1.1715    3.2306   -0.1241 C.2       1 <0>         0.3628
     14 O2          2.2308    3.8194   -0.2467 O.2       1 <0>        -0.3571
     15 N2          1.1500    1.8888   -0.0005 N.am      1 <0>        -0.2516
     16 C11        -0.0096    1.2227    0.1356 C.2       1 <0>         0.4083
     17 O3          0.0084    0.0115    0.2448 O.2       1 <0>        -0.3484
     18 N3         -1.1913    1.8684    0.1481 N.am      1 <0>        -0.2825
     19 H2         -2.0417    1.3509    0.2430 H         1 <0>         0.2762
     20 N4          2.3563    1.1764   -0.0136 N.2       1 <0>         0.0220
     21 C12         3.2098    1.3272    0.9528 C.2       1 <0>        -0.0229
     22 C13         4.5254    0.6671    0.8837 C.ar      1 <0>        -0.0607
     23 C14         5.4471    0.8273    1.9225 C.ar      1 <0>        -0.1225
     24 C15         6.6766    0.2077    1.8543 C.ar      1 <0>        -0.1095
     25 C16         7.0053   -0.5749    0.7604 C.ar      1 <0>        -0.1911
     26 C17         6.1019   -0.7427   -0.2768 C.ar      1 <0>         0.0609
     27 C18         4.8563   -0.1282   -0.2200 C.ar      1 <0>         0.0981
     28 O4          3.9660   -0.2948   -1.2328 O.3       1 <0>        -0.2515
     29 O5          6.4319   -1.5129   -1.3480 O.3       1 <0>        -0.1959
     30 C19         7.7262   -2.1185   -1.3375 C.3       1 <0>        -0.0652
     31 H3         -6.2618    7.0579    0.9014 H         1 <0>         0.0667
     32 H4         -6.3753    6.8966   -0.8675 H         1 <0>         0.0672
     33 H5         -7.6347    6.1901    0.1732 H         1 <0>         0.1108
     34 H6         -4.4873    7.4086   -0.1408 H         1 <0>         0.1419
     35 H7         -2.0508    7.6012   -0.3155 H         1 <0>         0.1360
     36 H8         -4.1758    3.1651    0.2277 H         1 <0>         0.1461
     37 H9          2.9556    1.9366    1.8075 H         1 <0>         0.1312
     38 H10         5.1958    1.4360    2.7785 H         1 <0>         0.1365
     39 H11         7.3868    0.3331    2.6582 H         1 <0>         0.1357
     40 H12         7.9709   -1.0567    0.7152 H         1 <0>         0.1397
     41 H13         4.0422    0.3647   -1.9359 H         1 <0>         0.2374
     42 H14         8.4900   -1.3425   -1.2883 H         1 <0>         0.0654
     43 H15         7.8149   -2.7712   -0.4691 H         1 <0>         0.0693
     44 H16         7.8609   -2.7038   -2.2472 H         1 <0>         0.1121
@<TRIPOS>BOND
     1    1    2 1
     2    1   31 1
     3    1   32 1
     4    1   33 1
     5    2    3 1
     6    3    8 ar
     7    3    4 ar
     8    4    5 ar
     9    4   34 1
    10    5    6 ar
    11    5   35 1
    12    6   11 1
    13    6    7 ar
    14    7    8 ar
    15    7    9 1
    16    8   36 1
    17    9   18 1
    18    9   10 2
    19   10   11 1
    20   10   13 1
    21   11   12 1
    22   13   14 2
    23   13   15 am
    24   15   16 am
    25   15   20 1
    26   16   17 2
    27   16   18 am
    28   18   19 1
    29   20   21 2
    30   21   22 1
    31   21   37 1
    32   22   27 ar
    33   22   23 ar
    34   23   24 ar
    35   23   38 1
    36   24   25 ar
    37   24   39 1
    38   25   26 ar
    39   25   40 1
    40   26   27 ar
    41   26   29 1
    42   27   28 1
    43   28   41 1
    44   29   30 1
    45   30   42 1
    46   30   43 1
    47   30   44 1
@<TRIPOS>MOLECULE
ZINC02319490
   43    46     0     0     0
SMALL
USER_CHARGES

@<TRIPOS>ATOM
      1 C1         -9.7358   -5.1536    0.3841 C.3       1 <0>        -0.0648
      2 O1        -10.6972   -4.0973    0.3404 O.3       1 <0>        -0.1946
      3 C2        -10.2159   -2.8262    0.2771 C.ar      1 <0>         0.0518
      4 C3         -8.8561   -2.6072    0.2583 C.ar      1 <0>        -0.1418
      5 C4         -8.3637   -1.2984    0.1936 C.ar      1 <0>        -0.1175
      6 C5         -9.2575   -0.2116    0.1484 C.ar      1 <0>         0.0636
      7 C6        -10.6281   -0.4514    0.1682 C.ar      1 <0>        -0.2343
      8 C7        -11.1028   -1.7469    0.2317 C.ar      1 <0>         0.1280
      9 O2        -12.4426   -1.9739    0.2508 O.3       1 <0>        -0.1876
     10 C8        -13.2954   -0.8284    0.2026 C.3       1 <0>        -0.0671
     11 N1         -8.5149    0.9488    0.0891 N.pl3     1 <0>        -0.1588
     12 H1         -8.8837    1.8450    0.0491 H         1 <0>         0.2604
     13 C9         -7.1623    0.6436    0.0945 C.2       1 <0>        -0.1496
     14 C10        -7.0172   -0.7312    0.1581 C.2       1 <0>         0.0396
     15 N2         -5.7479   -1.2814    0.1763 N.am      1 <0>        -0.2827
     16 H2         -5.6346   -2.2739    0.2221 H         1 <0>         0.2734
     17 C11        -4.6647   -0.4825    0.1324 C.2       1 <0>         0.4104
     18 O3         -3.5555   -0.9811    0.1491 O.2       1 <0>        -0.3564
     19 N3         -4.7846    0.8550    0.0708 N.am      1 <0>        -0.2488
     20 C12        -5.9957    1.4459    0.0556 C.2       1 <0>         0.3643
     21 O4         -6.0864    2.6597    0.0042 O.2       1 <0>        -0.3534
     22 N4         -3.6308    1.6485    0.0276 N.2       1 <0>         0.0165
     23 C13        -3.3474    2.4362    1.0195 C.2       1 <0>        -0.0266
     24 C14        -2.1974    3.3539    0.9267 C.ar      1 <0>        -0.1037
     25 C15        -1.8891    4.2033    1.9922 C.ar      1 <0>        -0.0710
     26 C16        -0.8083    5.0547    1.9010 C.ar      1 <0>        -0.1548
     27 C17        -0.0317    5.0744    0.7553 C.ar      1 <0>        -0.0799
     28 C18        -0.3322    4.2416   -0.3069 C.ar      1 <0>        -0.1799
     29 C19        -1.4123    3.3824   -0.2309 C.ar      1 <0>         0.1522
     30 F1         -1.7052    2.5686   -1.2687 F         1 <0>        -0.0708
     31 H3        -10.2517   -6.1126    0.4329 H         1 <0>         0.1126
     32 H4         -9.1170   -5.1191   -0.5125 H         1 <0>         0.0666
     33 H5         -9.1054   -5.0349    1.2654 H         1 <0>         0.0655
     34 H6         -8.1722   -3.4423    0.2934 H         1 <0>         0.1425
     35 H7        -11.3212    0.3761    0.1336 H         1 <0>         0.1458
     36 H8        -13.0944   -0.1893    1.0625 H         1 <0>         0.0687
     37 H9        -13.1056   -0.2724   -0.7155 H         1 <0>         0.0695
     38 H10       -14.3368   -1.1495    0.2242 H         1 <0>         0.1140
     39 H11        -3.9540    2.4193    1.9128 H         1 <0>         0.1322
     40 H12        -2.4934    4.1899    2.8871 H         1 <0>         0.1392
     41 H13        -0.5667    5.7081    2.7263 H         1 <0>         0.1381
     42 H14         0.8136    5.7435    0.6908 H         1 <0>         0.1383
     43 H15         0.2781    4.2627   -1.1977 H         1 <0>         0.1507
@<TRIPOS>BOND
     1    1    2 1
     2    1   31 1
     3    1   32 1
     4    1   33 1
     5    2    3 1
     6    3    8 ar
     7    3    4 ar
     8    4    5 ar
     9    4   34 1
    10    5   14 1
    11    5    6 ar
    12    6    7 ar
    13    6   11 1
    14    7    8 ar
    15    7   35 1
    16    8    9 1
    17    9   10 1
    18   10   36 1
    19   10   37 1
    20   10   38 1
    21   11   12 1
    22   11   13 1
    23   13   20 1
    24   13   14 2
    25   14   15 1
    26   15   16 1
    27   15   17 am
    28   17   18 2
    29   17   19 am
    30   19   20 am
    31   19   22 1
    32   20   21 2
    33   22   23 2
    34   23   24 1
    35   23   39 1
    36   24   29 ar
    37   24   25 ar
    38   25   26 ar
    39   25   40 1
    40   26   27 ar
    41   26   41 1
    42   27   28 ar
    43   27   42 1
    44   28   29 ar
    45   28   43 1
    46   29   30 1
@<TRIPOS>MOLECULE
ZINC02331091
   45    48     0     0     0
SMALL
USER_CHARGES

@<TRIPOS>ATOM
      1 C1          0.7232    1.5692    0.5266 C.ar      1 <0>        -0.1415
      2 C2         -0.1155    0.9302   -0.3700 C.ar      1 <0>        -0.1025
      3 C3         -0.9714    1.6638   -1.1696 C.ar      1 <0>        -0.1558
      4 C4         -0.9909    3.0463   -1.0807 C.ar      1 <0>         0.1052
      5 C5         -0.1405    3.6961   -0.1791 C.ar      1 <0>        -0.0602
      6 C6          0.7192    2.9456    0.6224 C.ar      1 <0>        -0.0980
      7 C7         -0.1533    5.1719   -0.0769 C.2       1 <0>        -0.0222
      8 C8          0.2372    6.0546   -1.0326 C.2       1 <0>        -0.1845
      9 C9          0.0406    7.3399   -0.4787 C.2       1 <0>        -0.1781
     10 N1         -0.4319    7.1646    0.7393 N.2       1 <0>        -0.0118
     11 N2         -0.5545    5.9115    0.9987 N.pl3     1 <0>        -0.1101
     12 H1         -0.8935    5.5342    1.8605 H         1 <0>         0.2923
     13 C10         0.4473    8.3345   -1.4878 C.2       1 <0>         0.3961
     14 O1          0.4075    9.5392   -1.3294 O.2       1 <0>        -0.3374
     15 N3          0.8819    7.7218   -2.6023 N.am      1 <0>        -0.3450
     16 C11         0.7832    6.2692   -2.4178 C.3       1 <0>         0.1549
     17 H2          0.1052    5.8433   -3.1574 H         1 <0>         0.1321
     18 C12         2.1462    5.6382   -2.5403 C.ar      1 <0>        -0.1315
     19 C13         3.2803    6.3892   -2.2948 C.ar      1 <0>        -0.0898
     20 C14         4.5306    5.8106   -2.4065 C.ar      1 <0>        -0.1464
     21 C15         4.6484    4.4800   -2.7636 C.ar      1 <0>        -0.1018
     22 C16         3.5161    3.7274   -3.0099 C.ar      1 <0>        -0.1691
     23 C17         2.2627    4.3046   -2.8931 C.ar      1 <0>         0.1107
     24 F1          1.1547    3.5682   -3.1279 F         1 <0>        -0.0968
     25 C18         1.3667    8.3952   -3.8096 C.3       1 <0>         0.0188
     26 C19         0.1924    8.6542   -4.7555 C.3       1 <0>        -0.1864
     27 C20         0.6986    9.3575   -6.0164 C.3       1 <0>         0.0015
     28 O2         -0.3982    9.5995   -6.8999 O.3       1 <0>        -0.3510
     29 O3         -1.8324    3.7682   -1.8655 O.3       1 <0>        -0.2814
     30 H3          1.3861    0.9884    1.1508 H         1 <0>         0.1353
     31 H4         -0.1041   -0.1473   -0.4421 H         1 <0>         0.1351
     32 H5         -1.6262    1.1587   -1.8643 H         1 <0>         0.1447
     33 H6          1.3780    3.4410    1.3203 H         1 <0>         0.1385
     34 H7          3.1895    7.4286   -2.0158 H         1 <0>         0.1482
     35 H8          5.4162    6.3982   -2.2145 H         1 <0>         0.1355
     36 H9          5.6258    4.0289   -2.8503 H         1 <0>         0.1353
     37 H10         3.6083    2.6882   -3.2891 H         1 <0>         0.1450
     38 H11         1.8288    9.3437   -3.5359 H         1 <0>         0.1095
     39 H12         2.1019    7.7632   -4.3078 H         1 <0>         0.0933
     40 H13        -0.2698    7.7057   -5.0292 H         1 <0>         0.0992
     41 H14        -0.5429    9.2862   -4.2573 H         1 <0>         0.1142
     42 H15         1.1608   10.3060   -5.7427 H         1 <0>         0.0605
     43 H16         1.4338    8.7256   -6.5146 H         1 <0>         0.0540
     44 H17        -0.1503   10.0439   -7.7221 H         1 <0>         0.2104
     45 H18        -2.7250    3.8596   -1.5050 H         1 <0>         0.2307
@<TRIPOS>BOND
     1    1    6 ar
     2    1    2 ar
     3    1   30 1
     4    2    3 ar
     5    2   31 1
     6    3    4 ar
     7    3   32 1
     8    4    5 ar
     9    4   29 1
    10    5    6 ar
    11    5    7 1
    12    6   33 1
    13    7   11 1
    14    7    8 2
    15    8   16 1
    16    8    9 1
    17    9   10 2
    18    9   13 1
    19   10   11 1
    20   11   12 1
    21   13   14 2
    22   13   15 am
    23   15   16 1
    24   15   25 1
    25   16   17 1
    26   16   18 1
    27   18   23 ar
    28   18   19 ar
    29   19   20 ar
    30   19   34 1
    31   20   21 ar
    32   20   35 1
    33   21   22 ar
    34   21   36 1
    35   22   23 ar
    36   22   37 1
    37   23   24 1
    38   25   26 1
    39   25   38 1
    40   25   39 1
    41   26   27 1
    42   26   40 1
    43   26   41 1
    44   27   28 1
    45   27   42 1
    46   27   43 1
    47   28   44 1
    48   29   45 1
@<TRIPOS>MOLECULE
ZINC02331091
   45    48     0     0     0
SMALL
USER_CHARGES

@<TRIPOS>ATOM
      1 C1          0.7281    1.5698    0.5269 C.ar      1 <0>        -0.1438
      2 C2         -0.1115    0.9301   -0.3684 C.ar      1 <0>        -0.1079
      3 C3         -0.9689    1.6630   -1.1670 C.ar      1 <0>        -0.1575
      4 C4         -0.9892    3.0456   -1.0783 C.ar      1 <0>         0.0977
      5 C5         -0.1379    3.6961   -0.1781 C.ar      1 <0>        -0.0293
      6 C6          0.7234    2.9462    0.6224 C.ar      1 <0>        -0.0876
      7 C7         -0.1514    5.1719   -0.0762 C.2       1 <0>        -0.0215
      8 C8          0.2317    6.0547   -1.0347 C.2       1 <0>        -0.1628
      9 C9          0.0319    7.3400   -0.4820 C.2       1 <0>        -0.2111
     10 N1         -0.4301    7.1646    0.7400 N.pl3     1 <0>        -0.0039
     11 N2         -0.5516    5.9115    0.9998 N.2       1 <0>        -0.0998
     12 H1         -0.6547    7.9029    1.3759 H         1 <0>         0.2934
     13 C10         0.4326    8.3347   -1.4934 C.2       1 <0>         0.3869
     14 O1          0.3889    9.5395   -1.3365 O.2       1 <0>        -0.3587
     15 N3          0.8667    7.7221   -2.6082 N.am      1 <0>        -0.3360
     16 C11         0.7736    6.2694   -2.4215 C.3       1 <0>         0.1457
     17 H2          0.0953    5.8401   -3.1589 H         1 <0>         0.1363
     18 C12         2.1385    5.6431   -2.5465 C.ar      1 <0>        -0.1314
     19 C13         3.2705    6.3984   -2.3048 C.ar      1 <0>        -0.0918
     20 C14         4.5226    5.8241   -2.4188 C.ar      1 <0>        -0.1467
     21 C15         4.6443    4.4935   -2.7744 C.ar      1 <0>        -0.1004
     22 C16         3.5140    3.7365   -3.0169 C.ar      1 <0>        -0.1676
     23 C17         2.2589    4.3094   -2.8978 C.ar      1 <0>         0.1145
     24 F1          1.1529    3.5688   -3.1290 F         1 <0>        -0.0937
     25 C18         1.3461    8.3956   -3.8175 C.3       1 <0>         0.0164
     26 C19         0.1686    8.6492   -4.7609 C.3       1 <0>        -0.1861
     27 C20         0.6693    9.3526   -6.0240 C.3       1 <0>         0.0018
     28 O2         -0.4305    9.5896   -6.9051 O.3       1 <0>        -0.3508
     29 O3         -1.8322    3.7668   -1.8621 O.3       1 <0>        -0.2872
     30 H3          1.3922    0.9896    1.1503 H         1 <0>         0.1324
     31 H4         -0.0995   -0.1474   -0.4403 H         1 <0>         0.1315
     32 H5         -1.6244    1.1574   -1.8607 H         1 <0>         0.1409
     33 H6          1.3829    3.4422    1.3193 H         1 <0>         0.1413
     34 H7          3.1767    7.4379   -2.0269 H         1 <0>         0.1449
     35 H8          5.4066    6.4151   -2.2297 H         1 <0>         0.1350
     36 H9          5.6230    4.0457   -2.8629 H         1 <0>         0.1359
     37 H10         3.6093    2.6973   -3.2950 H         1 <0>         0.1465
     38 H11         1.8055    9.3461   -3.5462 H         1 <0>         0.1091
     39 H12         2.0824    7.7656   -4.3167 H         1 <0>         0.0962
     40 H13        -0.2909    7.6987   -5.0322 H         1 <0>         0.1007
     41 H14        -0.5677    9.2792   -4.2617 H         1 <0>         0.1125
     42 H15         1.1287   10.3031   -5.7526 H         1 <0>         0.0601
     43 H16         1.4055    8.7227   -6.5231 H         1 <0>         0.0551
     44 H17        -0.1862   10.0337   -7.7285 H         1 <0>         0.2112
     45 H18        -2.7243    3.8577   -1.5004 H         1 <0>         0.2302
@<TRIPOS>BOND
     1    1    6 ar
     2    1    2 ar
     3    1   30 1
     4    2    3 ar
     5    2   31 1
     6    3    4 ar
     7    3   32 1
     8    4    5 ar
     9    4   29 1
    10    5    6 ar
    11    5    7 1
    12    6   33 1
    13    7    8 1
    14    7   11 2
    15    8   16 1
    16    8    9 2
    17    9   13 1
    18    9   10 1
    19   10   12 1
    20   10   11 1
    21   13   14 2
    22   13   15 am
    23   15   16 1
    24   15   25 1
    25   16   17 1
    26   16   18 1
    27   18   23 ar
    28   18   19 ar
    29   19   20 ar
    30   19   34 1
    31   20   21 ar
    32   20   35 1
    33   21   22 ar
    34   21   36 1
    35   22   23 ar
    36   22   37 1
    37   23   24 1
    38   25   26 1
    39   25   38 1
    40   25   39 1
    41   26   27 1
    42   26   40 1
    43   26   41 1
    44   27   28 1
    45   27   42 1
    46   27   43 1
    47   28   44 1
    48   29   45 1
@<TRIPOS>MOLECULE
ZINC02331095
   45    48     0     0     0
SMALL
USER_CHARGES

@<TRIPOS>ATOM
      1 C1          1.1846    2.5339   -0.2691 C.ar      1 <0>        -0.1383
      2 C2          1.0205    3.9033   -0.3839 C.ar      1 <0>        -0.1019
      3 C3         -0.2455    4.4578   -0.3748 C.ar      1 <0>        -0.1534
      4 C4         -1.3593    3.6434   -0.2499 C.ar      1 <0>         0.1014
      5 C5         -1.1974    2.2578   -0.1385 C.ar      1 <0>        -0.0637
      6 C6          0.0850    1.7100   -0.1441 C.ar      1 <0>        -0.1007
      7 C7         -2.3807    1.3790   -0.0109 C.2       1 <0>        -0.0143
      8 C8         -3.3466    1.1784   -0.9446 C.2       1 <0>        -0.2211
      9 C9         -4.2584    0.2637   -0.3706 C.2       1 <0>        -0.1694
     10 N1         -3.8061   -0.0245    0.8334 N.2       1 <0>        -0.0089
     11 N2         -2.7110    0.6073    1.0663 N.pl3     1 <0>        -0.1025
     12 H1         -2.1797    0.5432    1.9111 H         1 <0>         0.2962
     13 C10        -5.3291    0.0156   -1.3529 C.2       1 <0>         0.3968
     14 O1         -6.2757   -0.7260   -1.1743 O.2       1 <0>        -0.3317
     15 N3         -5.1114    0.7245   -2.4738 N.am      1 <0>        -0.3384
     16 C11        -3.8746    1.4985   -2.3163 C.3       1 <0>         0.1610
     17 H2         -4.0865    2.5647   -2.3963 H         1 <0>         0.1084
     18 C12        -2.8719    1.0906   -3.3649 C.ar      1 <0>        -0.1352
     19 C13        -1.8686    0.1936   -3.0501 C.ar      1 <0>        -0.0758
     20 C14        -0.9523   -0.1851   -4.0132 C.ar      1 <0>        -0.1424
     21 C15        -1.0313    0.3416   -5.2892 C.ar      1 <0>        -0.0945
     22 C16        -2.0300    1.2429   -5.6046 C.ar      1 <0>        -0.1647
     23 C17        -2.9520    1.6186   -4.6421 C.ar      1 <0>         0.1008
     24 F1         -3.9292    2.4994   -4.9494 F         1 <0>        -0.1112
     25 C18        -5.9698    0.7243   -3.6609 C.3       1 <0>         0.0170
     26 C19        -5.6009   -0.4599   -4.5568 C.3       1 <0>        -0.1883
     27 C20        -6.4092   -0.3893   -5.8539 C.3       1 <0>         0.0014
     28 O2         -6.0646   -1.4953   -6.6907 O.3       1 <0>        -0.3516
     29 O3         -2.6040    4.1874   -0.2404 O.3       1 <0>        -0.2835
     30 H3          2.1773    2.1085   -0.2771 H         1 <0>         0.1366
     31 H4          1.8860    4.5419   -0.4815 H         1 <0>         0.1370
     32 H5         -0.3666    5.5271   -0.4655 H         1 <0>         0.1464
     33 H6          0.2170    0.6418   -0.0551 H         1 <0>         0.1363
     34 H7         -1.8032   -0.2150   -2.0525 H         1 <0>         0.1490
     35 H8         -0.1711   -0.8892   -3.7675 H         1 <0>         0.1366
     36 H9         -0.3119    0.0486   -6.0396 H         1 <0>         0.1382
     37 H10        -2.0913    1.6544   -6.6012 H         1 <0>         0.1464
     38 H11        -7.0125    0.6377   -3.3554 H         1 <0>         0.1091
     39 H12        -5.8286    1.6543   -4.2116 H         1 <0>         0.0994
     40 H13        -4.5366   -0.4218   -4.7894 H         1 <0>         0.1010
     41 H14        -5.8264   -1.3918   -4.0384 H         1 <0>         0.1147
     42 H15        -7.4734   -0.4274   -5.6214 H         1 <0>         0.0598
     43 H16        -6.1837    0.5426   -6.3724 H         1 <0>         0.0551
     44 H17        -6.5401   -1.5148   -7.5325 H         1 <0>         0.2093
     45 H18        -3.0055    4.2663   -1.1166 H         1 <0>         0.2338
@<TRIPOS>BOND
     1    1    6 ar
     2    1    2 ar
     3    1   30 1
     4    2    3 ar
     5    2   31 1
     6    3    4 ar
     7    3   32 1
     8    4    5 ar
     9    4   29 1
    10    5    6 ar
    11    5    7 1
    12    6   33 1
    13    7   11 1
    14    7    8 2
    15    8   16 1
    16    8    9 1
    17    9   10 2
    18    9   13 1
    19   10   11 1
    20   11   12 1
    21   13   14 2
    22   13   15 am
    23   15   16 1
    24   15   25 1
    25   16   17 1
    26   16   18 1
    27   18   23 ar
    28   18   19 ar
    29   19   20 ar
    30   19   34 1
    31   20   21 ar
    32   20   35 1
    33   21   22 ar
    34   21   36 1
    35   22   23 ar
    36   22   37 1
    37   23   24 1
    38   25   26 1
    39   25   38 1
    40   25   39 1
    41   26   27 1
    42   26   40 1
    43   26   41 1
    44   27   28 1
    45   27   42 1
    46   27   43 1
    47   28   44 1
    48   29   45 1
@<TRIPOS>MOLECULE
ZINC02331095
   45    48     0     0     0
SMALL
USER_CHARGES

@<TRIPOS>ATOM
      1 C1          1.1849    2.5333   -0.2696 C.ar      1 <0>        -0.1407
      2 C2          1.0209    3.9027   -0.3842 C.ar      1 <0>        -0.1074
      3 C3         -0.2450    4.4574   -0.3748 C.ar      1 <0>        -0.1550
      4 C4         -1.3589    3.6431   -0.2498 C.ar      1 <0>         0.0934
      5 C5         -1.1971    2.2574   -0.1387 C.ar      1 <0>        -0.0320
      6 C6          0.0852    1.7095   -0.1446 C.ar      1 <0>        -0.0899
      7 C7         -2.3805    1.3787   -0.0110 C.2       1 <0>        -0.0175
      8 C8         -3.3497    1.1829   -0.9423 C.2       1 <0>        -0.1995
      9 C9         -4.2633    0.2708   -0.3670 C.2       1 <0>        -0.1995
     10 N1         -3.8059   -0.0248    0.8333 N.pl3     1 <0>        -0.0022
     11 N2         -2.7107    0.6069    1.0661 N.2       1 <0>        -0.0892
     12 H1         -4.2489   -0.6526    1.4733 H         1 <0>         0.2959
     13 C10        -5.3374    0.0276   -1.3468 C.2       1 <0>         0.3873
     14 O1         -6.2862   -0.7108   -1.1666 O.2       1 <0>        -0.3527
     15 N3         -5.1200    0.7370   -2.4675 N.am      1 <0>        -0.3296
     16 C11        -3.8801    1.5064   -2.3123 C.3       1 <0>         0.1512
     17 H2         -4.0884    2.5734   -2.3906 H         1 <0>         0.1133
     18 C12        -2.8815    1.0961   -3.3639 C.ar      1 <0>        -0.1355
     19 C13        -1.8806    0.1951   -3.0527 C.ar      1 <0>        -0.0746
     20 C14        -0.9682   -0.1858   -4.0186 C.ar      1 <0>        -0.1415
     21 C15        -1.0486    0.3426   -5.2938 C.ar      1 <0>        -0.0934
     22 C16        -2.0448    1.2478   -5.6056 C.ar      1 <0>        -0.1647
     23 C17        -2.9630    1.6258   -4.6404 C.ar      1 <0>         0.1010
     24 F1         -3.9378    2.5104   -4.9442 F         1 <0>        -0.1116
     25 C18        -5.9815    0.7412   -3.6524 C.3       1 <0>         0.0146
     26 C19        -5.6191   -0.4433   -4.5505 C.3       1 <0>        -0.1880
     27 C20        -6.4305   -0.3684   -5.8455 C.3       1 <0>         0.0016
     28 O2         -6.0920   -1.4747   -6.6844 O.3       1 <0>        -0.3516
     29 O3         -2.6036    4.1872   -0.2400 O.3       1 <0>        -0.2835
     30 H3          2.1775    2.1078   -0.2779 H         1 <0>         0.1336
     31 H4          1.8864    4.5413   -0.4818 H         1 <0>         0.1333
     32 H5         -0.3660    5.5267   -0.4653 H         1 <0>         0.1426
     33 H6          0.2171    0.6413   -0.0558 H         1 <0>         0.1394
     34 H7         -1.8142   -0.2148   -2.0557 H         1 <0>         0.1504
     35 H8         -0.1889   -0.8930   -3.7756 H         1 <0>         0.1378
     36 H9         -0.3321    0.0478   -6.0463 H         1 <0>         0.1387
     37 H10        -2.1072    1.6606   -6.6016 H         1 <0>         0.1466
     38 H11        -7.0237    0.6580   -3.3443 H         1 <0>         0.1086
     39 H12        -5.8384    1.6713   -4.2024 H         1 <0>         0.1025
     40 H13        -4.5553   -0.4088   -4.7858 H         1 <0>         0.1024
     41 H14        -5.8466   -1.3750   -4.0326 H         1 <0>         0.1128
     42 H15        -7.4942   -0.4030   -5.6103 H         1 <0>         0.0595
     43 H16        -6.2030    0.5632   -6.3635 H         1 <0>         0.0564
     44 H17        -6.5697   -1.4916   -7.5249 H         1 <0>         0.2102
     45 H18        -3.0052    4.2663   -1.1161 H         1 <0>         0.2267
@<TRIPOS>BOND
     1    1    6 ar
     2    1    2 ar
     3    1   30 1
     4    2    3 ar
     5    2   31 1
     6    3    4 ar
     7    3   32 1
     8    4    5 ar
     9    4   29 1
    10    5    6 ar
    11    5    7 1
    12    6   33 1
    13    7    8 1
    14    7   11 2
    15    8   16 1
    16    8    9 2
    17    9   13 1
    18    9   10 1
    19   10   12 1
    20   10   11 1
    21   13   14 2
    22   13   15 am
    23   15   16 1
    24   15   25 1
    25   16   17 1
    26   16   18 1
    27   18   23 ar
    28   18   19 ar
    29   19   20 ar
    30   19   34 1
    31   20   21 ar
    32   20   35 1
    33   21   22 ar
    34   21   36 1
    35   22   23 ar
    36   22   37 1
    37   23   24 1
    38   25   26 1
    39   25   38 1
    40   25   39 1
    41   26   27 1
    42   26   40 1
    43   26   41 1
    44   27   28 1
    45   27   42 1
    46   27   43 1
    47   28   44 1
    48   29   45 1
@<TRIPOS>MOLECULE
ZINC02334610
   43    46     0     0     0
SMALL
USER_CHARGES

@<TRIPOS>ATOM
      1 C1         -4.7633   -0.6227   -2.3147 C.ar      1 <0>        -0.1398
      2 C2         -5.5129   -0.2378   -1.2168 C.ar      1 <0>        -0.1033
      3 C3         -5.0570    0.7592   -0.3752 C.ar      1 <0>        -0.1610
      4 C4         -3.8422    1.3769   -0.6246 C.ar      1 <0>         0.0966
      5 C5         -3.0841    0.9941   -1.7369 C.ar      1 <0>        -0.0591
      6 C6         -3.5539   -0.0134   -2.5788 C.ar      1 <0>        -0.0992
      7 C7         -1.7878    1.6507   -2.0146 C.2       1 <0>        -0.0318
      8 C8         -0.6712    1.6003   -1.2429 C.2       1 <0>        -0.1871
      9 C9          0.3011    2.3757   -1.9144 C.2       1 <0>        -0.1731
     10 N1         -0.2649    2.8329   -3.0135 N.2       1 <0>        -0.0126
     11 N2         -1.4814    2.4258   -3.0964 N.pl3     1 <0>        -0.1115
     12 H1         -2.1103    2.6443   -3.8426 H         1 <0>         0.2913
     13 C10         1.5356    2.3498   -1.1092 C.2       1 <0>         0.3973
     14 O1          2.5685    2.9185   -1.4051 O.2       1 <0>        -0.3183
     15 N3          1.3586    1.6084   -0.0023 N.am      1 <0>        -0.3430
     16 C11        -0.0127    1.0858    0.0080 C.3       1 <0>         0.1528
     17 H2          0.0021   -0.0041    0.0020 H         1 <0>         0.1097
     18 C12        -0.7480    1.5862    1.2246 C.ar      1 <0>        -0.0724
     19 C13        -0.5385    2.8763    1.6764 C.ar      1 <0>        -0.1157
     20 C14        -1.2115    3.3383    2.7921 C.ar      1 <0>        -0.1199
     21 C15        -2.0954    2.5116    3.4586 C.ar      1 <0>        -0.1489
     22 C16        -2.3076    1.2173    3.0072 C.ar      1 <0>         0.0726
     23 C17        -1.6349    0.7577    1.8840 C.ar      1 <0>        -0.1285
     24 O2         -3.1762    0.4021    3.6614 O.3       1 <0>        -0.2940
     25 C18         2.3711    1.3615    1.0274 C.3       1 <0>         0.0244
     26 C19         3.1649    0.1032    0.6706 C.3       1 <0>        -0.0257
     27 O3          3.8987    0.3286   -0.5347 O.3       1 <0>        -0.3335
     28 O4         -3.3908    2.3534    0.2048 O.3       1 <0>        -0.2781
     29 H3         -5.1266   -1.4026   -2.9675 H         1 <0>         0.1372
     30 H4         -6.4586   -0.7193   -1.0164 H         1 <0>         0.1362
     31 H5         -5.6467    1.0545    0.4801 H         1 <0>         0.1409
     32 H6         -2.9715   -0.3166   -3.4364 H         1 <0>         0.1399
     33 H7          0.1523    3.5239    1.1569 H         1 <0>         0.1405
     34 H8         -1.0459    4.3461    3.1432 H         1 <0>         0.1315
     35 H9         -2.6209    2.8730    4.3302 H         1 <0>         0.1358
     36 H10        -1.8015   -0.2482    1.5282 H         1 <0>         0.1372
     37 H11        -4.0853    0.4537    3.3357 H         1 <0>         0.2246
     38 H12         3.0477    2.2142    1.0835 H         1 <0>         0.1230
     39 H13         1.8822    1.2215    1.9915 H         1 <0>         0.1026
     40 H14         3.8574   -0.1310    1.4792 H         1 <0>         0.0634
     41 H15         2.4783   -0.7312    0.5273 H         1 <0>         0.0599
     42 H16         4.4264   -0.4292   -0.8215 H         1 <0>         0.2074
     43 H17        -3.6731    3.2437   -0.0456 H         1 <0>         0.2316
@<TRIPOS>BOND
     1    1    6 ar
     2    1    2 ar
     3    1   29 1
     4    2    3 ar
     5    2   30 1
     6    3    4 ar
     7    3   31 1
     8    4    5 ar
     9    4   28 1
    10    5    6 ar
    11    5    7 1
    12    6   32 1
    13    7   11 1
    14    7    8 2
    15    8   16 1
    16    8    9 1
    17    9   10 2
    18    9   13 1
    19   10   11 1
    20   11   12 1
    21   13   14 2
    22   13   15 am
    23   15   16 1
    24   15   25 1
    25   16   17 1
    26   16   18 1
    27   18   23 ar
    28   18   19 ar
    29   19   20 ar
    30   19   33 1
    31   20   21 ar
    32   20   34 1
    33   21   22 ar
    34   21   35 1
    35   22   23 ar
    36   22   24 1
    37   23   36 1
    38   24   37 1
    39   25   26 1
    40   25   38 1
    41   25   39 1
    42   26   27 1
    43   26   40 1
    44   26   41 1
    45   27   42 1
    46   28   43 1
@<TRIPOS>MOLECULE
ZINC02334610
   43    46     0     0     0
SMALL
USER_CHARGES

@<TRIPOS>ATOM
      1 C1         -4.7628   -0.6235   -2.3149 C.ar      1 <0>        -0.1422
      2 C2         -5.5126   -0.2385   -1.2172 C.ar      1 <0>        -0.1086
      3 C3         -5.0570    0.7588   -0.3757 C.ar      1 <0>        -0.1628
      4 C4         -3.8423    1.3766   -0.6251 C.ar      1 <0>         0.0888
      5 C5         -3.0839    0.9937   -1.7372 C.ar      1 <0>        -0.0282
      6 C6         -3.5535   -0.0141   -2.5789 C.ar      1 <0>        -0.0881
      7 C7         -1.7877    1.6504   -2.0148 C.2       1 <0>        -0.0288
      8 C8         -0.6710    1.5998   -1.2432 C.2       1 <0>        -0.1702
      9 C9          0.3014    2.3749   -1.9149 C.2       1 <0>        -0.2043
     10 N1         -0.2648    2.8326   -3.0137 N.pl3     1 <0>        -0.0043
     11 N2         -1.4812    2.4253   -3.0967 N.2       1 <0>        -0.1032
     12 H1          0.1885    3.4151   -3.6883 H         1 <0>         0.2939
     13 C10         1.5361    2.3485   -1.1100 C.2       1 <0>         0.3888
     14 O1          2.5691    2.9169   -1.4061 O.2       1 <0>        -0.3395
     15 N3          1.3591    1.6071   -0.0031 N.am      1 <0>        -0.3342
     16 C11        -0.0124    1.0850    0.0075 C.3       1 <0>         0.1441
     17 H2          0.0020   -0.0049    0.0014 H         1 <0>         0.1131
     18 C12        -0.7472    1.5855    1.2243 C.ar      1 <0>        -0.0711
     19 C13        -0.5371    2.8755    1.6762 C.ar      1 <0>        -0.1172
     20 C14        -1.2097    3.3376    2.7921 C.ar      1 <0>        -0.1193
     21 C15        -2.0937    2.5112    3.4588 C.ar      1 <0>        -0.1477
     22 C16        -2.3065    1.2170    3.0073 C.ar      1 <0>         0.0752
     23 C17        -1.6342    0.7573    1.8839 C.ar      1 <0>        -0.1253
     24 O2         -3.1752    0.4020    3.6616 O.3       1 <0>        -0.2946
     25 C18         2.3718    1.3597    1.0263 C.3       1 <0>         0.0221
     26 C19         3.1650    0.1012    0.6692 C.3       1 <0>        -0.0255
     27 O3          3.8986    0.3264   -0.5363 O.3       1 <0>        -0.3362
     28 O4         -3.3911    2.3533    0.2042 O.3       1 <0>        -0.2841
     29 H3         -5.1259   -1.4036   -2.9676 H         1 <0>         0.1343
     30 H4         -6.4583   -0.7201   -1.0169 H         1 <0>         0.1326
     31 H5         -5.6469    1.0542    0.4794 H         1 <0>         0.1369
     32 H6         -2.9709   -0.3174   -3.4364 H         1 <0>         0.1430
     33 H7          0.1538    3.5229    1.1566 H         1 <0>         0.1365
     34 H8         -1.0436    4.3453    3.1433 H         1 <0>         0.1309
     35 H9         -2.6189    2.8727    4.3305 H         1 <0>         0.1362
     36 H10        -1.8013   -0.2486    1.5280 H         1 <0>         0.1384
     37 H11        -4.0844    0.4540    3.3362 H         1 <0>         0.2267
     38 H12         3.0487    2.2122    1.0823 H         1 <0>         0.1226
     39 H13         1.8831    1.2198    1.9905 H         1 <0>         0.1054
     40 H14         3.8577   -0.1334    1.4776 H         1 <0>         0.0651
     41 H15         2.4781   -0.7330    0.5260 H         1 <0>         0.0615
     42 H16         4.4260   -0.4315   -0.8233 H         1 <0>         0.2082
     43 H17        -3.6735    3.2435   -0.0464 H         1 <0>         0.2311
@<TRIPOS>BOND
     1    1    6 ar
     2    1    2 ar
     3    1   29 1
     4    2    3 ar
     5    2   30 1
     6    3    4 ar
     7    3   31 1
     8    4    5 ar
     9    4   28 1
    10    5    6 ar
    11    5    7 1
    12    6   32 1
    13    7    8 1
    14    7   11 2
    15    8   16 1
    16    8    9 2
    17    9   13 1
    18    9   10 1
    19   10   12 1
    20   10   11 1
    21   13   14 2
    22   13   15 am
    23   15   16 1
    24   15   25 1
    25   16   17 1
    26   16   18 1
    27   18   23 ar
    28   18   19 ar
    29   19   20 ar
    30   19   33 1
    31   20   21 ar
    32   20   34 1
    33   21   22 ar
    34   21   35 1
    35   22   23 ar
    36   22   24 1
    37   23   36 1
    38   24   37 1
    39   25   26 1
    40   25   38 1
    41   25   39 1
    42   26   27 1
    43   26   40 1
    44   26   41 1
    45   27   42 1
    46   28   43 1
@<TRIPOS>MOLECULE
ZINC02342306
   45    48     0     0     0
SMALL
USER_CHARGES

@<TRIPOS>ATOM
      1 C1          1.1785    1.7806    0.0004 C.ar      1 <0>        -0.1408
      2 C2         -0.0126    1.0758    0.0080 C.ar      1 <0>        -0.1033
      3 C3         -1.2207    1.7470    0.0173 C.ar      1 <0>        -0.1563
      4 C4         -1.2454    3.1322    0.0299 C.ar      1 <0>         0.0991
      5 C5         -0.0430    3.8482    0.0222 C.ar      1 <0>        -0.0646
      6 C6          1.1699    3.1603    0.0074 C.ar      1 <0>        -0.1005
      7 C7         -0.0587    5.3275    0.0293 C.2       1 <0>        -0.0262
      8 C8         -0.5232    6.1290    1.0227 C.2       1 <0>        -0.1883
      9 C9         -0.3265    7.4555    0.5763 C.2       1 <0>        -0.1788
     10 N1          0.2189    7.3803   -0.6214 N.2       1 <0>        -0.0102
     11 N2          0.3857    6.1526   -0.9640 N.pl3     1 <0>        -0.1097
     12 H1          0.7822    5.8470   -1.8297 H         1 <0>         0.2930
     13 C10        -0.8132    8.3643    1.6298 C.2       1 <0>         0.3942
     14 O1         -0.7936    9.5780    1.5621 O.2       1 <0>        -0.3358
     15 N3         -1.2822    7.6624    2.6755 N.am      1 <0>        -0.3446
     16 C11        -1.1403    6.2297    2.3909 C.3       1 <0>         0.1558
     17 H2         -0.4917    5.7633    3.1325 H         1 <0>         0.1110
     18 C12        -2.4926    5.5647    2.3956 C.ar      1 <0>        -0.1034
     19 C13        -3.5816    6.2103    1.8402 C.ar      1 <0>        -0.0767
     20 C14        -4.8213    5.5995    1.8396 C.ar      1 <0>        -0.1690
     21 C15        -4.9745    4.3449    2.4049 C.ar      1 <0>         0.1030
     22 C16        -3.8842    3.7015    2.9655 C.ar      1 <0>        -0.1646
     23 C17        -2.6444    4.3120    2.9603 C.ar      1 <0>        -0.0801
     24 F1         -6.1869    3.7487    2.4090 F         1 <0>        -0.1094
     25 C18        -1.8447    8.2348    3.9011 C.3       1 <0>         0.0245
     26 C19        -3.3536    8.4226    3.7305 C.3       1 <0>        -0.1977
     27 C20        -3.9410    9.0205    5.0105 C.3       1 <0>         0.0022
     28 O2         -5.3502    9.1959    4.8512 O.3       1 <0>        -0.3512
     29 O3         -2.4322    3.7928    0.0443 O.3       1 <0>        -0.2768
     30 H3          2.1183    1.2486   -0.0115 H         1 <0>         0.1367
     31 H4          0.0021   -0.0041    0.0020 H         1 <0>         0.1367
     32 H5         -2.1466    1.1910    0.0187 H         1 <0>         0.1467
     33 H6          2.1014    3.7069    0.0011 H         1 <0>         0.1386
     34 H7         -3.4627    7.1907    1.4030 H         1 <0>         0.1471
     35 H8         -5.6710    6.1023    1.4020 H         1 <0>         0.1467
     36 H9         -4.0026    2.7230    3.4070 H         1 <0>         0.1414
     37 H10        -1.7937    3.8102    3.3972 H         1 <0>         0.1330
     38 H11        -1.6546    7.5617    4.7371 H         1 <0>         0.0890
     39 H12        -1.3785    9.2001    4.0985 H         1 <0>         0.1110
     40 H13        -3.5437    9.0957    2.8946 H         1 <0>         0.1106
     41 H14        -3.8198    7.4574    3.5331 H         1 <0>         0.1113
     42 H15        -3.7509    8.3473    5.8465 H         1 <0>         0.0542
     43 H16        -3.4748    9.9857    5.2080 H         1 <0>         0.0598
     44 H17        -5.7898    9.5719    5.6261 H         1 <0>         0.2105
     45 H18        -2.7841    3.9886   -0.8349 H         1 <0>         0.2317
@<TRIPOS>BOND
     1    1    6 ar
     2    1    2 ar
     3    1   30 1
     4    2    3 ar
     5    2   31 1
     6    3    4 ar
     7    3   32 1
     8    4    5 ar
     9    4   29 1
    10    5    6 ar
    11    5    7 1
    12    6   33 1
    13    7   11 1
    14    7    8 2
    15    8   16 1
    16    8    9 1
    17    9   10 2
    18    9   13 1
    19   10   11 1
    20   11   12 1
    21   13   14 2
    22   13   15 am
    23   15   16 1
    24   15   25 1
    25   16   17 1
    26   16   18 1
    27   18   23 ar
    28   18   19 ar
    29   19   20 ar
    30   19   34 1
    31   20   21 ar
    32   20   35 1
    33   21   22 ar
    34   21   24 1
    35   22   23 ar
    36   22   36 1
    37   23   37 1
    38   25   26 1
    39   25   38 1
    40   25   39 1
    41   26   27 1
    42   26   40 1
    43   26   41 1
    44   27   28 1
    45   27   42 1
    46   27   43 1
    47   28   44 1
    48   29   45 1
@<TRIPOS>MOLECULE
ZINC02342306
   45    48     0     0     0
SMALL
USER_CHARGES

@<TRIPOS>ATOM
      1 C1          1.1557    1.7768   -0.0210 C.ar      1 <0>        -0.1432
      2 C2         -0.0375    1.0757   -0.0034 C.ar      1 <0>        -0.1086
      3 C3         -1.2434    1.7505    0.0178 C.ar      1 <0>        -0.1581
      4 C4         -1.2637    3.1358    0.0325 C.ar      1 <0>         0.0913
      5 C5         -0.0592    3.8481    0.0148 C.ar      1 <0>        -0.0338
      6 C6          1.1514    3.1565   -0.0120 C.ar      1 <0>        -0.0893
      7 C7         -0.0703    5.3274    0.0240 C.2       1 <0>        -0.0249
      8 C8         -0.5179    6.1290    1.0250 C.2       1 <0>        -0.1681
      9 C9         -0.3181    7.4555    0.5800 C.2       1 <0>        -0.2110
     10 N1          0.2077    7.3803   -0.6264 N.pl3     1 <0>        -0.0034
     11 N2          0.3676    6.1525   -0.9722 N.2       1 <0>        -0.0987
     12 H1          0.4485    8.1680   -1.1934 H         1 <0>         0.2942
     13 C10        -0.7991    8.3644    1.6361 C.2       1 <0>         0.3850
     14 O1         -0.7757    9.5781    1.5701 O.2       1 <0>        -0.3571
     15 N3         -1.2675    7.6625    2.6820 N.am      1 <0>        -0.3356
     16 C11        -1.1310    6.2298    2.3950 C.3       1 <0>         0.1467
     17 H2         -0.4820    5.7602    3.1342 H         1 <0>         0.1146
     18 C12        -2.4855    5.5691    2.4024 C.ar      1 <0>        -0.1021
     19 C13        -3.5738    6.2191    1.8509 C.ar      1 <0>        -0.0778
     20 C14        -4.8155    5.6123    1.8527 C.ar      1 <0>        -0.1687
     21 C15        -4.9713    4.3574    2.4166 C.ar      1 <0>         0.1048
     22 C16        -3.8816    3.7096    2.9734 C.ar      1 <0>        -0.1624
     23 C17        -2.6398    4.3161    2.9657 C.ar      1 <0>        -0.0765
     24 F1         -6.1856    3.7651    2.4232 F         1 <0>        -0.1089
     25 C18        -1.8249    8.2350    3.9100 C.3       1 <0>         0.0222
     26 C19        -3.3336    8.4279    3.7437 C.3       1 <0>        -0.1974
     27 C20        -3.9157    9.0259    5.0261 C.3       1 <0>         0.0024
     28 O2         -5.3247    9.2061    4.8708 O.3       1 <0>        -0.3509
     29 O3         -2.4483    3.8000    0.0587 O.3       1 <0>        -0.2829
     30 H3          2.0937    1.2419   -0.0422 H         1 <0>         0.1339
     31 H4         -0.0262   -0.0043   -0.0110 H         1 <0>         0.1331
     32 H5         -2.1709    1.1974    0.0270 H         1 <0>         0.1428
     33 H6          2.0845    3.7003   -0.0261 H         1 <0>         0.1417
     34 H7         -3.4529    7.1997    1.4147 H         1 <0>         0.1432
     35 H8         -5.6648    6.1184    1.4181 H         1 <0>         0.1462
     36 H9         -4.0019    2.7309    3.4138 H         1 <0>         0.1425
     37 H10        -1.7896    3.8110    3.3997 H         1 <0>         0.1342
     38 H11        -1.6347    7.5601    4.7445 H         1 <0>         0.0915
     39 H12        -1.3550    9.1985    4.1075 H         1 <0>         0.1103
     40 H13        -3.5238    9.1028    2.9092 H         1 <0>         0.1090
     41 H14        -3.8035    7.4645    3.5462 H         1 <0>         0.1132
     42 H15        -3.7255    8.3509    5.8606 H         1 <0>         0.0552
     43 H16        -3.4458    9.9893    5.2237 H         1 <0>         0.0593
     44 H17        -5.7610    9.5824    5.6474 H         1 <0>         0.2112
     45 H18        -2.8076    3.9981   -0.8170 H         1 <0>         0.2313
@<TRIPOS>BOND
     1    1    6 ar
     2    1    2 ar
     3    1   30 1
     4    2    3 ar
     5    2   31 1
     6    3    4 ar
     7    3   32 1
     8    4    5 ar
     9    4   29 1
    10    5    6 ar
    11    5    7 1
    12    6   33 1
    13    7    8 1
    14    7   11 2
    15    8   16 1
    16    8    9 2
    17    9   13 1
    18    9   10 1
    19   10   12 1
    20   10   11 1
    21   13   14 2
    22   13   15 am
    23   15   16 1
    24   15   25 1
    25   16   17 1
    26   16   18 1
    27   18   23 ar
    28   18   19 ar
    29   19   20 ar
    30   19   34 1
    31   20   21 ar
    32   20   35 1
    33   21   22 ar
    34   21   24 1
    35   22   23 ar
    36   22   36 1
    37   23   37 1
    38   25   26 1
    39   25   38 1
    40   25   39 1
    41   26   27 1
    42   26   40 1
    43   26   41 1
    44   27   28 1
    45   27   42 1
    46   27   43 1
    47   28   44 1
    48   29   45 1
@<TRIPOS>MOLECULE
ZINC02342307
   45    48     0     0     0
SMALL
USER_CHARGES

@<TRIPOS>ATOM
      1 C1          0.0446   -0.0869   -4.7974 C.ar      1 <0>        -0.1368
      2 C2          0.3519   -1.3829   -4.4213 C.ar      1 <0>        -0.1037
      3 C3         -0.4159   -2.0359   -3.4757 C.ar      1 <0>        -0.1558
      4 C4         -1.4970   -1.3931   -2.8947 C.ar      1 <0>         0.0922
      5 C5         -1.8142   -0.0847   -3.2768 C.ar      1 <0>        -0.0587
      6 C6         -1.0320    0.5644   -4.2315 C.ar      1 <0>        -0.0965
      7 C7         -2.9699    0.6085   -2.6665 C.2       1 <0>        -0.0272
      8 C8         -3.1075    0.9618   -1.3622 C.2       1 <0>        -0.1857
      9 C9         -4.3676    1.5940   -1.2613 C.2       1 <0>        -0.1790
     10 N1         -4.8986    1.5859   -2.4677 N.2       1 <0>        -0.0100
     11 N2         -4.1055    1.0179   -3.3050 N.pl3     1 <0>        -0.1099
     12 H1         -4.2925    0.8942   -4.2795 H         1 <0>         0.2928
     13 C10        -4.5606    1.9967    0.1435 C.2       1 <0>         0.3942
     14 O1         -5.5449    2.5667    0.5724 O.2       1 <0>        -0.3359
     15 N3         -3.4956    1.6440    0.8835 N.am      1 <0>        -0.3447
     16 C11        -2.5134    0.9784    0.0197 C.3       1 <0>         0.1548
     17 H2         -2.3402   -0.0409    0.3649 H         1 <0>         0.1215
     18 C12        -1.2192    1.7504    0.0173 C.ar      1 <0>        -0.1151
     19 C13        -0.0126    1.0758    0.0080 C.ar      1 <0>        -0.0888
     20 C14         1.1749    1.7828    0.0004 C.ar      1 <0>        -0.1724
     21 C15         1.1558    3.1672    0.0076 C.ar      1 <0>         0.1024
     22 C16        -0.0533    3.8418    0.0223 C.ar      1 <0>        -0.1693
     23 C17        -1.2395    3.1327    0.0298 C.ar      1 <0>        -0.0800
     24 F1          2.3160    3.8593   -0.0002 F         1 <0>        -0.1063
     25 C18        -3.3400    1.8854    2.3201 C.3       1 <0>         0.0244
     26 C19        -2.6697    3.2431    2.5394 C.3       1 <0>        -0.1986
     27 C20        -2.5072    3.4952    4.0397 C.3       1 <0>         0.0022
     28 O2         -1.8811    4.7633    4.2446 O.3       1 <0>        -0.3516
     29 O3         -2.2493   -2.0321   -1.9615 O.3       1 <0>        -0.2873
     30 H3          0.6501    0.4166   -5.5365 H         1 <0>         0.1380
     31 H4          1.1962   -1.8863   -4.8686 H         1 <0>         0.1370
     32 H5         -0.1707   -3.0472   -3.1866 H         1 <0>         0.1449
     33 H6         -1.2685    1.5758   -4.5273 H         1 <0>         0.1409
     34 H7          0.0021   -0.0041    0.0020 H         1 <0>         0.1412
     35 H8          2.1174    1.2555   -0.0114 H         1 <0>         0.1447
     36 H9         -0.0694    4.9216    0.0275 H         1 <0>         0.1501
     37 H10        -2.1827    3.6586    0.0409 H         1 <0>         0.1511
     38 H11        -4.3201    1.8828    2.7971 H         1 <0>         0.1112
     39 H12        -2.7219    1.1004    2.7556 H         1 <0>         0.0899
     40 H13        -1.6896    3.2457    2.0624 H         1 <0>         0.1106
     41 H14        -3.2878    4.0281    2.1039 H         1 <0>         0.1104
     42 H15        -3.4873    3.4926    4.5168 H         1 <0>         0.0602
     43 H16        -1.8890    2.7102    4.4753 H         1 <0>         0.0546
     44 H17        -1.7461    4.9896    5.1750 H         1 <0>         0.2107
     45 H18        -2.9919   -2.5307   -2.3290 H         1 <0>         0.2333
@<TRIPOS>BOND
     1    1    6 ar
     2    1    2 ar
     3    1   30 1
     4    2    3 ar
     5    2   31 1
     6    3    4 ar
     7    3   32 1
     8    4    5 ar
     9    4   29 1
    10    5    6 ar
    11    5    7 1
    12    6   33 1
    13    7   11 1
    14    7    8 2
    15    8   16 1
    16    8    9 1
    17    9   10 2
    18    9   13 1
    19   10   11 1
    20   11   12 1
    21   13   14 2
    22   13   15 am
    23   15   16 1
    24   15   25 1
    25   16   17 1
    26   16   18 1
    27   18   23 ar
    28   18   19 ar
    29   19   20 ar
    30   19   34 1
    31   20   21 ar
    32   20   35 1
    33   21   22 ar
    34   21   24 1
    35   22   23 ar
    36   22   36 1
    37   23   37 1
    38   25   26 1
    39   25   38 1
    40   25   39 1
    41   26   27 1
    42   26   40 1
    43   26   41 1
    44   27   28 1
    45   27   42 1
    46   27   43 1
    47   28   44 1
    48   29   45 1
@<TRIPOS>MOLECULE
ZINC02342307
   45    48     0     0     0
SMALL
USER_CHARGES

@<TRIPOS>ATOM
      1 C1          0.0442   -0.0877   -4.7975 C.ar      1 <0>        -0.1394
      2 C2          0.3516   -1.3836   -4.4211 C.ar      1 <0>        -0.1090
      3 C3         -0.4161   -2.0364   -3.4753 C.ar      1 <0>        -0.1575
      4 C4         -1.4971   -1.3935   -2.8943 C.ar      1 <0>         0.0846
      5 C5         -1.8144   -0.0852   -3.2767 C.ar      1 <0>        -0.0281
      6 C6         -1.0324    0.5637   -4.2317 C.ar      1 <0>        -0.0855
      7 C7         -2.9701    0.6082   -2.6664 C.2       1 <0>        -0.0258
      8 C8         -3.1077    0.9614   -1.3621 C.2       1 <0>        -0.1655
      9 C9         -4.3679    1.5934   -1.2612 C.2       1 <0>        -0.2113
     10 N1         -4.8988    1.5856   -2.4676 N.pl3     1 <0>        -0.0034
     11 N2         -4.1057    1.0174   -3.3049 N.2       1 <0>        -0.0989
     12 H1         -5.7932    1.9681   -2.6992 H         1 <0>         0.2942
     13 C10        -4.5611    1.9957    0.1437 C.2       1 <0>         0.3851
     14 O1         -5.5455    2.5655    0.5727 O.2       1 <0>        -0.3573
     15 N3         -3.4961    1.6430    0.8837 N.am      1 <0>        -0.3357
     16 C11        -2.5137    0.9778    0.0198 C.3       1 <0>         0.1456
     17 H2         -2.3404   -0.0416    0.3648 H         1 <0>         0.1257
     18 C12        -1.2196    1.7500    0.0178 C.ar      1 <0>        -0.1141
     19 C13        -0.0129    1.0755    0.0084 C.ar      1 <0>        -0.0859
     20 C14         1.1745    1.7827    0.0011 C.ar      1 <0>        -0.1707
     21 C15         1.1552    3.1671    0.0086 C.ar      1 <0>         0.1039
     22 C16        -0.0540    3.8415    0.0234 C.ar      1 <0>        -0.1691
     23 C17        -1.2401    3.1323    0.0306 C.ar      1 <0>        -0.0816
     24 F1          2.3153    3.8594    0.0011 F         1 <0>        -0.1057
     25 C18        -3.3407    1.8841    2.3204 C.3       1 <0>         0.0220
     26 C19        -2.6706    3.2418    2.5401 C.3       1 <0>        -0.1982
     27 C20        -2.5082    3.4935    4.0405 C.3       1 <0>         0.0024
     28 O2         -1.8824    4.7617    4.2458 O.3       1 <0>        -0.3514
     29 O3         -2.2493   -2.0322   -1.9609 O.3       1 <0>        -0.2931
     30 H3          0.6496    0.4156   -5.5368 H         1 <0>         0.1351
     31 H4          1.1958   -1.8871   -4.8684 H         1 <0>         0.1334
     32 H5         -0.1709   -3.0476   -3.1860 H         1 <0>         0.1410
     33 H6         -1.2689    1.5750   -4.5277 H         1 <0>         0.1439
     34 H7          0.0019   -0.0044    0.0021 H         1 <0>         0.1431
     35 H8          2.1171    1.2556   -0.0108 H         1 <0>         0.1459
     36 H9         -0.0703    4.9213    0.0289 H         1 <0>         0.1497
     37 H10        -2.1834    3.6580    0.0418 H         1 <0>         0.1474
     38 H11        -4.3208    1.8812    2.7973 H         1 <0>         0.1107
     39 H12        -2.7225    1.0990    2.7558 H         1 <0>         0.0926
     40 H13        -1.6904    3.2447    2.0632 H         1 <0>         0.1124
     41 H14        -3.2887    4.0268    2.1048 H         1 <0>         0.1088
     42 H15        -3.4884    3.4907    4.5175 H         1 <0>         0.0597
     43 H16        -1.8900    2.7085    4.4759 H         1 <0>         0.0556
     44 H17        -1.7475    4.9877    5.1763 H         1 <0>         0.2114
     45 H18        -2.9920   -2.5309   -2.3281 H         1 <0>         0.2327
@<TRIPOS>BOND
     1    1    6 ar
     2    1    2 ar
     3    1   30 1
     4    2    3 ar
     5    2   31 1
     6    3    4 ar
     7    3   32 1
     8    4    5 ar
     9    4   29 1
    10    5    6 ar
    11    5    7 1
    12    6   33 1
    13    7    8 1
    14    7   11 2
    15    8   16 1
    16    8    9 2
    17    9   13 1
    18    9   10 1
    19   10   12 1
    20   10   11 1
    21   13   14 2
    22   13   15 am
    23   15   16 1
    24   15   25 1
    25   16   17 1
    26   16   18 1
    27   18   23 ar
    28   18   19 ar
    29   19   20 ar
    30   19   34 1
    31   20   21 ar
    32   20   35 1
    33   21   22 ar
    34   21   24 1
    35   22   23 ar
    36   22   36 1
    37   23   37 1
    38   25   26 1
    39   25   38 1
    40   25   39 1
    41   26   27 1
    42   26   40 1
    43   26   41 1
    44   27   28 1
    45   27   42 1
    46   27   43 1
    47   28   44 1
    48   29   45 1
@<TRIPOS>MOLECULE
ZINC02344649
   41    43     0     0     0
SMALL
USER_CHARGES

@<TRIPOS>ATOM
      1 C1          1.6676    4.2165   -1.7884 C.3       1 <0>        -0.0398
      2 N1          0.7748    3.5421   -0.8426 N.am      1 <0>        -0.2439
      3 C2         -0.0029    4.2868   -0.0306 C.2       1 <0>         0.3222
      4 O1          0.0353    5.5030   -0.0821 O.2       1 <0>        -0.3578
      5 C3         -0.8971    3.6082    0.9167 C.ar      1 <0>        -0.1122
      6 C4         -1.7265    4.3178    1.7842 C.ar      1 <0>        -0.0645
      7 C5         -2.5459    3.6318    2.6534 C.ar      1 <0>        -0.1303
      8 C6         -2.5530    2.2432    2.6732 C.ar      1 <0>        -0.1040
      9 C7         -1.7414    1.5229    1.8246 C.ar      1 <0>        -0.1262
     10 C8         -0.9041    2.1963    0.9366 C.ar      1 <0>        -0.0498
     11 C9         -0.0180    1.4763    0.0102 C.2       1 <0>        -0.0154
     12 N2          0.7571    2.1476   -0.8037 N.2       1 <0>        -0.0173
     13 C10         0.0021   -0.0041    0.0020 C.ar      1 <0>        -0.0062
     14 C11         1.2144   -0.6848   -0.1244 C.ar      1 <0>        -0.1033
     15 C12         1.2344   -2.0609   -0.1263 C.ar      1 <0>        -0.1084
     16 C13         0.0397   -2.7768   -0.0132 C.ar      1 <0>        -0.1145
     17 C14        -1.1739   -2.0949    0.1075 C.ar      1 <0>        -0.0716
     18 C15        -1.1919   -0.7187    0.1150 C.ar      1 <0>        -0.1299
     19 C16         0.0597   -4.2537   -0.0218 C.2       1 <0>         0.3445
     20 O2         -0.9800   -4.8763    0.0761 O.2       1 <0>        -0.3708
     21 N3          1.2304   -4.9112   -0.1383 N.am      1 <0>        -0.3813
     22 C17         1.2502   -6.3760   -0.1468 C.3       1 <0>         0.0007
     23 C18         2.6928   -6.8657   -0.2889 C.3       1 <0>        -0.0217
     24 O3          3.4413   -6.4842    0.8671 O.3       1 <0>        -0.3541
     25 H1          2.6340    4.3900   -1.3151 H         1 <0>         0.0824
     26 H2          1.8022    3.5906   -2.6705 H         1 <0>         0.0955
     27 H3          1.2308    5.1707   -2.0831 H         1 <0>         0.1127
     28 H4         -1.7263    5.3978    1.7749 H         1 <0>         0.1599
     29 H5         -3.1894    4.1794    3.3260 H         1 <0>         0.1384
     30 H6         -3.2020    1.7223    3.3615 H         1 <0>         0.1363
     31 H7         -1.7537    0.4432    1.8472 H         1 <0>         0.1519
     32 H8          2.1373   -0.1313   -0.2165 H         1 <0>         0.1483
     33 H9          2.1727   -2.5874   -0.2196 H         1 <0>         0.1318
     34 H10        -2.0977   -2.6476    0.1945 H         1 <0>         0.1615
     35 H11        -2.1299   -0.1915    0.2079 H         1 <0>         0.1474
     36 H12         2.0599   -4.4144   -0.2164 H         1 <0>         0.2296
     37 H13         0.8296   -6.7505    0.7864 H         1 <0>         0.1092
     38 H14         0.6579   -6.7425   -0.9852 H         1 <0>         0.1007
     39 H15         2.7001   -7.9515   -0.3845 H         1 <0>         0.0743
     40 H16         3.1422   -6.4198   -1.1762 H         1 <0>         0.0620
     41 H17         4.3672   -6.7625    0.8456 H         1 <0>         0.2138
@<TRIPOS>BOND
     1    1    2 1
     2    1   25 1
     3    1   26 1
     4    1   27 1
     5    2   12 1
     6    2    3 am
     7    3    4 2
     8    3    5 1
     9    5   10 ar
    10    5    6 ar
    11    6    7 ar
    12    6   28 1
    13    7    8 ar
    14    7   29 1
    15    8    9 ar
    16    8   30 1
    17    9   10 ar
    18    9   31 1
    19   10   11 1
    20   11   12 2
    21   11   13 1
    22   13   18 ar
    23   13   14 ar
    24   14   15 ar
    25   14   32 1
    26   15   16 ar
    27   15   33 1
    28   16   17 ar
    29   16   19 1
    30   17   18 ar
    31   17   34 1
    32   18   35 1
    33   19   20 2
    34   19   21 am
    35   21   22 1
    36   21   36 1
    37   22   23 1
    38   22   37 1
    39   22   38 1
    40   23   24 1
    41   23   39 1
    42   23   40 1
    43   24   41 1
@<TRIPOS>MOLECULE
ZINC02350476
   40    42     0     0     0
SMALL
USER_CHARGES

@<TRIPOS>ATOM
      1 C1          6.3990   -3.7453   -2.5816 C.3       1 <0>        -0.2098
      2 C2          6.1427   -3.1791   -1.1835 C.3       1 <0>        -0.1631
      3 C3          5.2421   -1.9468   -1.2895 C.3       1 <0>        -0.1604
      4 C4          4.9858   -1.3807    0.1086 C.3       1 <0>        -0.0730
      5 C5          4.0987   -0.1669    0.0042 C.2       1 <0>         0.0021
      6 N1          4.5237    1.0872   -0.1443 N.2       1 <0>        -0.2558
      7 C6          3.4919    1.9037   -0.2009 C.2       1 <0>         0.1607
      8 N2          3.3962    3.2702   -0.3452 N.am      1 <0>        -0.2743
      9 H1          4.2259    3.8220   -0.4299 H         1 <0>         0.2789
     10 C7          2.1873    3.8656   -0.3725 C.2       1 <0>         0.3547
     11 O1          2.1052    5.0753   -0.5007 O.2       1 <0>        -0.3442
     12 C8          1.0201    3.0884   -0.2584 C.2       1 <0>        -0.3024
     13 C9          1.1240    1.7386   -0.1105 C.2       1 <0>         0.2644
     14 N3          2.3662    1.1492   -0.0849 N.pl3     1 <0>        -0.1362
     15 N4          2.7917   -0.1801    0.0457 N.2       1 <0>        -0.0932
     16 N5         -0.0111    0.9658    0.0074 N.am      1 <0>        -0.3401
     17 C10        -0.1787    0.1745    1.0854 C.2       1 <0>         0.3570
     18 O2          0.6277    0.2068    1.9943 O.2       1 <0>        -0.3018
     19 C11        -1.3416   -0.7316    1.1622 C.ar      1 <0>        -0.1724
     20 C12        -2.2736   -0.7674    0.1223 C.ar      1 <0>        -0.0781
     21 C13        -3.3549   -1.6190    0.1984 C.ar      1 <0>        -0.1525
     22 C14        -3.5256   -2.4314    1.3067 C.ar      1 <0>        -0.0726
     23 C15        -2.6117   -2.3999    2.3430 C.ar      1 <0>        -0.1787
     24 C16        -1.5190   -1.5544    2.2792 C.ar      1 <0>         0.1701
     25 F1         -0.6262   -1.5231    3.2927 F         1 <0>        -0.0701
     26 H2          5.4506   -4.0267   -3.0391 H         1 <0>         0.0732
     27 H3          6.8884   -2.9893   -3.1956 H         1 <0>         0.0745
     28 H4          7.0406   -4.6232   -2.5061 H         1 <0>         0.0739
     29 H5          7.0912   -2.8977   -0.7260 H         1 <0>         0.0823
     30 H6          5.6533   -3.9351   -0.5695 H         1 <0>         0.0812
     31 H7          4.2936   -2.2283   -1.7470 H         1 <0>         0.0890
     32 H8          5.7315   -1.1908   -1.9035 H         1 <0>         0.0932
     33 H9          5.9343   -1.0992    0.5661 H         1 <0>         0.1119
     34 H10         4.4964   -2.1367    0.7227 H         1 <0>         0.1090
     35 H11         0.0485    3.5594   -0.2840 H         1 <0>         0.1870
     36 H12        -0.6912    0.9946   -0.6837 H         1 <0>         0.2499
     37 H13        -2.1454   -0.1317   -0.7413 H         1 <0>         0.1290
     38 H14        -4.0738   -1.6493   -0.6070 H         1 <0>         0.1403
     39 H15        -4.3776   -3.0929    1.3617 H         1 <0>         0.1420
     40 H16        -2.7513   -3.0363    3.2043 H         1 <0>         0.1544
@<TRIPOS>BOND
     1    1    2 1
     2    1   26 1
     3    1   27 1
     4    1   28 1
     5    2    3 1
     6    2   29 1
     7    2   30 1
     8    3    4 1
     9    3   31 1
    10    3   32 1
    11    4    5 1
    12    4   33 1
    13    4   34 1
    14    5   15 2
    15    5    6 1
    16    6    7 2
    17    7   14 1
    18    7    8 1
    19    8    9 1
    20    8   10 am
    21   10   11 2
    22   10   12 1
    23   12   13 2
    24   12   35 1
    25   13   14 1
    26   13   16 1
    27   14   15 1
    28   16   17 am
    29   16   36 1
    30   17   18 2
    31   17   19 1
    32   19   24 ar
    33   19   20 ar
    34   20   21 ar
    35   20   37 1
    36   21   22 ar
    37   21   38 1
    38   22   23 ar
    39   22   39 1
    40   23   24 ar
    41   23   40 1
    42   24   25 1
@<TRIPOS>MOLECULE
ZINC02351195
   42    44     0     0     0
SMALL
USER_CHARGES

@<TRIPOS>ATOM
      1 C1          6.7040   -2.3037    1.6580 C.3       1 <0>        -0.2120
      2 C2          5.7262   -1.7737    2.7087 C.3       1 <0>        -0.0138
      3 O1          4.6058   -1.1727    2.0564 O.3       1 <0>        -0.2019
      4 C3          3.6369   -0.6483    2.8522 C.ar      1 <0>         0.1245
      5 C4          3.7618   -0.7114    4.2326 C.ar      1 <0>        -0.2223
      6 C5          2.7755   -0.1782    5.0392 C.ar      1 <0>        -0.0883
      7 C6          1.6639    0.4178    4.4720 C.ar      1 <0>        -0.1722
      8 C7          1.5399    0.4870    3.0969 C.ar      1 <0>        -0.0821
      9 C8          2.5212   -0.0496    2.2857 C.ar      1 <0>        -0.1007
     10 C9          2.3826    0.0211    0.7868 C.3       1 <0>         0.0905
     11 H1          3.2477   -0.4511    0.3212 H         1 <0>         0.1432
     12 C10         1.1331   -0.7033    0.3669 C.2       1 <0>        -0.2491
     13 C11         0.0021   -0.0041    0.0020 C.2       1 <0>         0.1690
     14 C12        -1.1496   -0.7212   -0.3832 C.2       1 <0>        -0.2550
     15 C13        -1.1276   -2.0712   -0.3906 C.2       1 <0>         0.1154
     16 N1         -0.0084   -2.7531   -0.0314 N.am      1 <0>        -0.1082
     17 C14         1.1094   -2.1037    0.3437 C.2       1 <0>         0.3329
     18 O2          2.1038   -2.7360    0.6639 O.2       1 <0>        -0.3691
     19 O3         -0.0183   -4.1689   -0.0517 O.3       1 <0>        -0.2055
     20 C15        -2.3611   -2.8323   -0.8034 C.3       1 <0>        -0.1824
     21 O4         -0.0162    1.3456    0.0094 O.3       1 <0>        -0.1450
     22 C16         1.1397    2.0322    0.0021 C.2       1 <0>         0.2536
     23 C17         2.3141    1.4611    0.3599 C.2       1 <0>        -0.2507
     24 C18         3.5133    2.2433    0.3315 C.1       1 <0>        -0.0577
     25 N2          4.4646    2.8638    0.3090 N.1       1 <0>        -0.0759
     26 N3          1.1290    3.3507   -0.3793 N.pl3     1 <0>        -0.3883
     27 H2          7.5587   -2.7621    2.1556 H         1 <0>         0.0822
     28 H3          6.2031   -3.0469    1.0377 H         1 <0>         0.0914
     29 H4          7.0469   -1.4796    1.0323 H         1 <0>         0.0884
     30 H5          6.2271   -1.0305    3.3291 H         1 <0>         0.0715
     31 H6          5.3834   -2.5977    3.3344 H         1 <0>         0.0740
     32 H7          4.6297   -1.1767    4.6761 H         1 <0>         0.1340
     33 H8          2.8722   -0.2270    6.1138 H         1 <0>         0.1265
     34 H9          0.8935    0.8335    5.1044 H         1 <0>         0.1266
     35 H10         0.6730    0.9569    2.6563 H         1 <0>         0.1293
     36 H11        -2.0462   -0.1923   -0.6710 H         1 <0>         0.1672
     37 H12         0.8183   -4.5719    0.2181 H         1 <0>         0.2563
     38 H13        -2.3382   -3.0052   -1.8794 H         1 <0>         0.1061
     39 H14        -2.3890   -3.7892   -0.2822 H         1 <0>         0.1118
     40 H15        -3.2481   -2.2530   -0.5473 H         1 <0>         0.0986
     41 H16         0.2955    3.7739   -0.6384 H         1 <0>         0.2277
     42 H17         1.9549    3.8593   -0.3898 H         1 <0>         0.2595
@<TRIPOS>BOND
     1    1    2 1
     2    1   27 1
     3    1   28 1
     4    1   29 1
     5    2    3 1
     6    2   30 1
     7    2   31 1
     8    3    4 1
     9    4    9 ar
    10    4    5 ar
    11    5    6 ar
    12    5   32 1
    13    6    7 ar
    14    6   33 1
    15    7    8 ar
    16    7   34 1
    17    8    9 ar
    18    8   35 1
    19    9   10 1
    20   10   11 1
    21   10   23 1
    22   10   12 1
    23   12   17 1
    24   12   13 2
    25   13   14 1
    26   13   21 1
    27   14   15 2
    28   14   36 1
    29   15   16 1
    30   15   20 1
    31   16   17 am
    32   16   19 1
    33   17   18 2
    34   19   37 1
    35   20   38 1
    36   20   39 1
    37   20   40 1
    38   21   22 1
    39   22   23 2
    40   22   26 1
    41   23   24 1
    42   24   25 3
    43   26   41 1
    44   26   42 1
@<TRIPOS>MOLECULE
ZINC02351196
   42    44     0     0     0
SMALL
USER_CHARGES

@<TRIPOS>ATOM
      1 C1          4.7306    4.0566   -0.0200 C.3       1 <0>        -0.2119
      2 C2          3.5314    3.1065   -0.0140 C.3       1 <0>        -0.0138
      3 O1          2.3215    3.8666    0.0006 O.3       1 <0>        -0.2015
      4 C3          1.1549    3.1694    0.0076 C.ar      1 <0>         0.1247
      5 C4          1.1744    1.7821    0.0004 C.ar      1 <0>        -0.2224
      6 C5         -0.0126    1.0758    0.0080 C.ar      1 <0>        -0.0883
      7 C6         -1.2198    1.7503    0.0173 C.ar      1 <0>        -0.1723
      8 C7         -1.2418    3.1325    0.0298 C.ar      1 <0>        -0.0821
      9 C8         -0.0572    3.8436    0.0223 C.ar      1 <0>        -0.1008
     10 C9         -0.0821    5.3504    0.0297 C.3       1 <0>         0.0905
     11 H1          0.9401    5.7287    0.0168 H         1 <0>         0.1432
     12 C10        -0.7731    5.8316    1.2759 C.2       1 <0>        -0.2491
     13 C11        -2.0641    6.3129    1.2247 C.2       1 <0>         0.1692
     14 C12        -2.6763    6.7541    2.4162 C.2       1 <0>        -0.2561
     15 C13        -1.9949    6.6995    3.5803 C.2       1 <0>         0.1162
     16 N1         -0.7227    6.2238    3.6226 N.am      1 <0>        -0.1076
     17 C14        -0.1052    5.7937    2.5066 C.2       1 <0>         0.3328
     18 O2          1.0387    5.3704    2.5669 O.2       1 <0>        -0.3690
     19 O3         -0.0357    6.1803    4.8600 O.3       1 <0>        -0.2063
     20 C15        -2.6538    7.1732    4.8502 C.3       1 <0>        -0.1856
     21 O4         -2.7430    6.3668    0.0592 O.3       1 <0>        -0.1450
     22 C16        -2.0775    6.3146   -1.1078 C.2       1 <0>         0.2536
     23 C17        -0.8111    5.8428   -1.1896 C.2       1 <0>        -0.2507
     24 C18        -0.1535    5.8125   -2.4613 C.1       1 <0>        -0.0577
     25 N2          0.3682    5.7885   -3.4701 N.1       1 <0>        -0.0758
     26 N3         -2.7001    6.7530   -2.2498 N.pl3     1 <0>        -0.3883
     27 H2          5.6535    3.4768   -0.0312 H         1 <0>         0.0822
     28 H3          4.6883    4.6895   -0.9065 H         1 <0>         0.0883
     29 H4          4.7043    4.6805    0.8734 H         1 <0>         0.0914
     30 H5          3.5737    2.4736    0.8724 H         1 <0>         0.0740
     31 H6          3.5578    2.4826   -0.9075 H         1 <0>         0.0714
     32 H7          2.1169    1.2549   -0.0114 H         1 <0>         0.1340
     33 H8          0.0021   -0.0041    0.0020 H         1 <0>         0.1264
     34 H9         -2.1468    1.1963    0.0191 H         1 <0>         0.1266
     35 H10        -2.1859    3.6570    0.0413 H         1 <0>         0.1293
     36 H11        -3.6865    7.1354    2.3973 H         1 <0>         0.1674
     37 H12         0.8630    5.8286    4.7988 H         1 <0>         0.2565
     38 H13        -1.9614    7.0571    5.6839 H         1 <0>         0.1136
     39 H14        -2.9265    8.2236    4.7480 H         1 <0>         0.1027
     40 H15        -3.5500    6.5817    5.0370 H         1 <0>         0.1033
     41 H16        -2.2329    6.7220   -3.0993 H         1 <0>         0.2595
     42 H17        -3.6072    7.0939   -2.2073 H         1 <0>         0.2278
@<TRIPOS>BOND
     1    1    2 1
     2    1   27 1
     3    1   28 1
     4    1   29 1
     5    2    3 1
     6    2   30 1
     7    2   31 1
     8    3    4 1
     9    4    9 ar
    10    4    5 ar
    11    5    6 ar
    12    5   32 1
    13    6    7 ar
    14    6   33 1
    15    7    8 ar
    16    7   34 1
    17    8    9 ar
    18    8   35 1
    19    9   10 1
    20   10   11 1
    21   10   23 1
    22   10   12 1
    23   12   17 1
    24   12   13 2
    25   13   14 1
    26   13   21 1
    27   14   15 2
    28   14   36 1
    29   15   16 1
    30   15   20 1
    31   16   17 am
    32   16   19 1
    33   17   18 2
    34   19   37 1
    35   20   38 1
    36   20   39 1
    37   20   40 1
    38   21   22 1
    39   22   23 2
    40   22   26 1
    41   23   24 1
    42   24   25 3
    43   26   41 1
    44   26   42 1
@<TRIPOS>MOLECULE
ZINC02355945
   45    47     0     0     0
SMALL
USER_CHARGES

@<TRIPOS>ATOM
      1 C1          3.5679    3.6203   -0.0881 C.3       1 <0>        -0.0643
      2 O1          3.0223    2.8371    0.9753 O.3       1 <0>        -0.2085
      3 C2          1.7525    2.3783    0.8153 C.ar      1 <0>         0.1124
      4 C3          1.1618    1.6118    1.8092 C.ar      1 <0>        -0.1531
      5 C4         -0.1279    1.1456    1.6472 C.ar      1 <0>        -0.0597
      6 C5         -0.8312    1.4394    0.4870 C.ar      1 <0>         0.0035
      7 C6         -0.2414    2.2105   -0.5052 C.ar      1 <0>        -0.0592
      8 C7          1.0481    2.6766   -0.3420 C.ar      1 <0>        -0.2163
      9 N1         -2.1399    0.9610    0.3194 N.am      1 <0>        -0.2635
     10 C8         -3.1686    1.8330    0.3798 C.2       1 <0>         0.3087
     11 O2         -2.9805    3.0146    0.5757 O.2       1 <0>        -0.2754
     12 C9         -4.5688    1.2795    0.1940 C.3       1 <0>        -0.1350
     13 H1         -5.0243    1.7876   -0.6559 H         1 <0>         0.1703
     14 C10        -4.6728   -0.2152   -0.0437 C.2       1 <0>         0.3084
     15 O3         -5.7474   -0.7529   -0.2041 O.2       1 <0>        -0.2885
     16 N2         -3.5243   -0.9241   -0.0704 N.am      1 <0>        -0.3499
     17 C11        -2.3302   -0.3449    0.0990 C.2       1 <0>         0.3992
     18 O4         -1.3474   -1.0576    0.0550 O.2       1 <0>        -0.3482
     19 C12        -5.3729    1.6159    1.4233 C.2       1 <0>         0.0392
     20 C13        -6.4620    2.3545    1.3179 C.2       1 <0>        -0.2783
     21 N3         -4.9680    1.1487    2.6678 N.pl3     1 <0>        -0.3146
     22 C14        -5.6323    1.5703    3.8222 C.ar      1 <0>         0.1274
     23 C15        -6.0043    2.9022    3.9638 C.ar      1 <0>        -0.2181
     24 C16        -6.6662    3.3187    5.1024 C.ar      1 <0>        -0.0618
     25 C17        -6.9508    2.4159    6.1091 C.ar      1 <0>        -0.2297
     26 C18        -6.5767    1.0843    5.9766 C.ar      1 <0>         0.1429
     27 C19        -5.9166    0.6612    4.8314 C.ar      1 <0>        -0.2468
     28 N4         -6.8644    0.1726    6.9949 N.pl3     1 <0>        -0.4193
     29 H2          2.9528    4.5075   -0.2385 H         1 <0>         0.0705
     30 H3          4.5840    3.9216    0.1669 H         1 <0>         0.1108
     31 H4          3.5832    3.0293   -1.0038 H         1 <0>         0.0699
     32 H5          1.7105    1.3798    2.7101 H         1 <0>         0.1507
     33 H6         -0.5877    0.5489    2.4210 H         1 <0>         0.1417
     34 H7         -0.7895    2.4422   -1.4065 H         1 <0>         0.1384
     35 H8          1.5085    3.2731   -1.1157 H         1 <0>         0.1416
     36 H9         -3.5658   -1.8814   -0.2211 H         1 <0>         0.2732
     37 H10        -7.0938    2.5112    2.1798 H         1 <0>         0.1500
     38 H11        -6.7213    2.8022    0.3699 H         1 <0>         0.1241
     39 H12        -4.2242    0.5298    2.7350 H         1 <0>         0.2279
     40 H13        -5.7791    3.6113    3.1810 H         1 <0>         0.1478
     41 H14        -6.9577    4.3532    5.2081 H         1 <0>         0.1314
     42 H15        -7.4648    2.7457    6.9999 H         1 <0>         0.1289
     43 H16        -5.6245   -0.3732    4.7261 H         1 <0>         0.1315
     44 H17        -6.6028   -0.7568    6.9019 H         1 <0>         0.2192
     45 H18        -7.3258    0.4689    7.7950 H         1 <0>         0.2207
@<TRIPOS>BOND
     1    1    2 1
     2    1   29 1
     3    1   30 1
     4    1   31 1
     5    2    3 1
     6    3    8 ar
     7    3    4 ar
     8    4    5 ar
     9    4   32 1
    10    5    6 ar
    11    5   33 1
    12    6    7 ar
    13    6    9 1
    14    7    8 ar
    15    7   34 1
    16    8   35 1
    17    9   17 am
    18    9   10 am
    19   10   11 2
    20   10   12 1
    21   12   13 1
    22   12   14 1
    23   12   19 1
    24   14   15 2
    25   14   16 am
    26   16   17 am
    27   16   36 1
    28   17   18 2
    29   19   20 2
    30   19   21 1
    31   20   37 1
    32   20   38 1
    33   21   22 1
    34   21   39 1
    35   22   27 ar
    36   22   23 ar
    37   23   24 ar
    38   23   40 1
    39   24   25 ar
    40   24   41 1
    41   25   26 ar
    42   25   42 1
    43   26   27 ar
    44   26   28 1
    45   27   43 1
    46   28   44 1
    47   28   45 1
@<TRIPOS>MOLECULE
ZINC02358367
   38    40     0     0     0
SMALL
USER_CHARGES

@<TRIPOS>ATOM
      1 C1          3.3216   13.4664    3.4802 C.3       1 <0>        -0.2053
      2 C2          3.4709   13.1887    1.9831 C.3       1 <0>        -0.0175
      3 C3          4.9089   13.4826    1.5508 C.3       1 <0>        -0.2053
      4 C4          3.1485   11.7430    1.7057 C.2       1 <0>        -0.2095
      5 N1          3.7170   10.6453    2.1636 N.2       1 <0>        -0.0610
      6 N2          3.3227    9.4950    1.8292 N.2       1 <0>        -0.0913
      7 C5          2.3085    9.3188    0.9934 C.2       1 <0>        -0.0658
      8 S1          1.8888   11.0262    0.6544 S.3       1 <0>         0.1819
      9 N3          1.7386    8.1456    0.5135 N.am      1 <0>        -0.2650
     10 C6          2.2260    6.9511    0.9034 C.2       1 <0>         0.3827
     11 O1          3.1641    6.8999    1.6750 O.2       1 <0>        -0.2793
     12 C7          1.6204    5.7043    0.3934 C.2       1 <0>        -0.1670
     13 C8          2.0216    4.3883    0.7113 C.2       1 <0>        -0.1675
     14 C9          1.1794    3.5715    0.0095 C.2       1 <0>        -0.0670
     15 N4          0.3328    4.3827   -0.6869 N.pl3     1 <0>        -0.0849
     16 H1         -0.3933    4.0656   -1.2970 H         1 <0>         0.3004
     17 N5          0.6056    5.6141   -0.4436 N.2       1 <0>        -0.0834
     18 C10         1.1887    2.0921    0.0019 C.ar      1 <0>        -0.0502
     19 C11         2.3987    1.3990   -0.0138 C.ar      1 <0>        -0.0888
     20 C12         2.4014    0.0193   -0.0217 C.ar      1 <0>        -0.1334
     21 C13         1.2073   -0.6804   -0.0136 C.ar      1 <0>        -0.1060
     22 C14         0.0021   -0.0041    0.0020 C.ar      1 <0>        -0.1487
     23 C15        -0.0167    1.3812    0.0096 C.ar      1 <0>         0.0735
     24 O2         -1.2008    2.0470    0.0189 O.3       1 <0>        -0.3037
     25 H2          4.0064   12.8279    4.0383 H         1 <0>         0.0974
     26 H3          3.5548   14.5121    3.6808 H         1 <0>         0.0792
     27 H4          2.2972   13.2571    3.7882 H         1 <0>         0.0794
     28 H5          2.7861   13.8272    1.4250 H         1 <0>         0.1019
     29 H6          5.0152   13.2848    0.4842 H         1 <0>         0.0795
     30 H7          5.1420   14.5283    1.7514 H         1 <0>         0.0792
     31 H8          5.5937   12.8441    2.1088 H         1 <0>         0.0974
     32 H9          0.9901    8.1865   -0.1021 H         1 <0>         0.2611
     33 H10         2.8244    4.0901    1.3692 H         1 <0>         0.1822
     34 H11         3.3325    1.9416   -0.0198 H         1 <0>         0.1463
     35 H12         3.3389   -0.5167   -0.0346 H         1 <0>         0.1390
     36 H13         1.2173   -1.7603   -0.0198 H         1 <0>         0.1373
     37 H14        -0.9262   -0.5561    0.0079 H         1 <0>         0.1446
     38 H15        -1.5394    2.2350    0.9049 H         1 <0>         0.2379
@<TRIPOS>BOND
     1    1    2 1
     2    1   25 1
     3    1   26 1
     4    1   27 1
     5    2    3 1
     6    2    4 1
     7    2   28 1
     8    3   29 1
     9    3   30 1
    10    3   31 1
    11    4    8 1
    12    4    5 2
    13    5    6 1
    14    6    7 2
    15    7    8 1
    16    7    9 1
    17    9   10 am
    18    9   32 1
    19   10   11 2
    20   10   12 1
    21   12   17 2
    22   12   13 1
    23   13   14 2
    24   13   33 1
    25   14   15 1
    26   14   18 1
    27   15   16 1
    28   15   17 1
    29   18   23 ar
    30   18   19 ar
    31   19   20 ar
    32   19   34 1
    33   20   21 ar
    34   20   35 1
    35   21   22 ar
    36   21   36 1
    37   22   23 ar
    38   22   37 1
    39   23   24 1
    40   24   38 1
@<TRIPOS>MOLECULE
ZINC02358367
   38    40     0     0     0
SMALL
USER_CHARGES

@<TRIPOS>ATOM
      1 C1          3.2960   13.4625    3.5069 C.3       1 <0>        -0.2055
      2 C2          3.4490   13.1884    2.0095 C.3       1 <0>        -0.0195
      3 C3          4.8874   13.4859    1.5810 C.3       1 <0>        -0.2056
      4 C4          3.1298   11.7428    1.7282 C.2       1 <0>        -0.1984
      5 N1          3.6994   10.6451    2.1849 N.2       1 <0>        -0.0608
      6 N2          3.3079    9.4948    1.8470 N.2       1 <0>        -0.0814
      7 C5          2.2958    9.3186    1.0087 C.2       1 <0>        -0.0739
      8 S1          1.8737   11.0260    0.6726 S.3       1 <0>         0.1830
      9 N3          1.7291    8.1455    0.5249 N.am      1 <0>        -0.2797
     10 C6          2.2179    6.9510    0.9132 C.2       1 <0>         0.3609
     11 O1          3.1544    6.8998    1.6867 O.2       1 <0>        -0.2614
     12 C7          1.6157    5.7042    0.3991 C.2       1 <0>        -0.1956
     13 C8          2.0186    4.3883    0.7149 C.2       1 <0>        -0.1455
     14 C9          1.1794    3.5715    0.0095 C.2       1 <0>        -0.0729
     15 N4          0.3320    4.3827   -0.6859 N.2       1 <0>        -0.0665
     16 H1          0.1196    6.3945   -0.8371 H         1 <0>         0.2790
     17 N5          0.6051    5.6141   -0.4430 N.pl3     1 <0>        -0.0590
     18 C10         1.1887    2.0921    0.0019 C.ar      1 <0>        -0.0298
     19 C11         2.3987    1.3990   -0.0138 C.ar      1 <0>        -0.0969
     20 C12         2.4014    0.0193   -0.0217 C.ar      1 <0>        -0.1395
     21 C13         1.2073   -0.6804   -0.0136 C.ar      1 <0>        -0.1086
     22 C14         0.0021   -0.0041    0.0020 C.ar      1 <0>        -0.1569
     23 C15        -0.0167    1.3812    0.0096 C.ar      1 <0>         0.0957
     24 O2         -1.2008    2.0470    0.0189 O.3       1 <0>        -0.2786
     25 H2          3.9807   12.8240    4.0650 H         1 <0>         0.0982
     26 H3          3.5268   14.5082    3.7103 H         1 <0>         0.0815
     27 H4          2.2713   13.2506    3.8122 H         1 <0>         0.0797
     28 H5          2.7642   13.8269    1.4514 H         1 <0>         0.1032
     29 H6          4.9963   13.2907    0.5141 H         1 <0>         0.0798
     30 H7          5.1181   14.5316    1.7844 H         1 <0>         0.0815
     31 H8          5.5721   12.8475    2.1390 H         1 <0>         0.0982
     32 H9          0.9819    8.1864   -0.0922 H         1 <0>         0.2377
     33 H10         2.8202    4.0901    1.3743 H         1 <0>         0.1817
     34 H11         3.3325    1.9416   -0.0198 H         1 <0>         0.1395
     35 H12         3.3389   -0.5167   -0.0346 H         1 <0>         0.1345
     36 H13         1.2173   -1.7603   -0.0198 H         1 <0>         0.1332
     37 H14        -0.9262   -0.5561    0.0079 H         1 <0>         0.1419
     38 H15        -1.5394    2.2350    0.9049 H         1 <0>         0.2271
@<TRIPOS>BOND
     1    1    2 1
     2    1   25 1
     3    1   26 1
     4    1   27 1
     5    2    3 1
     6    2    4 1
     7    2   28 1
     8    3   29 1
     9    3   30 1
    10    3   31 1
    11    4    8 1
    12    4    5 2
    13    5    6 1
    14    6    7 2
    15    7    8 1
    16    7    9 1
    17    9   10 am
    18    9   32 1
    19   10   11 2
    20   10   12 1
    21   12   13 2
    22   12   17 1
    23   13   33 1
    24   13   14 1
    25   14   18 1
    26   14   15 2
    27   15   17 1
    28   16   17 1
    29   18   23 ar
    30   18   19 ar
    31   19   20 ar
    32   19   34 1
    33   20   21 ar
    34   20   35 1
    35   21   22 ar
    36   21   36 1
    37   22   23 ar
    38   22   37 1
    39   23   24 1
    40   24   38 1
@<TRIPOS>MOLECULE
ZINC02358367
   38    40     0     0     0
SMALL
USER_CHARGES

@<TRIPOS>ATOM
      1 C1          3.2960   13.4625    3.5069 C.3       1 <0>        -0.2055
      2 C2          3.4490   13.1884    2.0095 C.3       1 <0>        -0.0195
      3 C3          4.8874   13.4859    1.5810 C.3       1 <0>        -0.2056
      4 C4          3.1298   11.7428    1.7282 C.2       1 <0>        -0.1984
      5 N1          3.6994   10.6451    2.1849 N.2       1 <0>        -0.0608
      6 N2          3.3079    9.4948    1.8470 N.2       1 <0>        -0.0814
      7 C5          2.2958    9.3186    1.0087 C.2       1 <0>        -0.0739
      8 S1          1.8737   11.0260    0.6726 S.3       1 <0>         0.1830
      9 N3          1.7291    8.1455    0.5249 N.am      1 <0>        -0.2797
     10 C6          2.2179    6.9510    0.9132 C.2       1 <0>         0.3609
     11 O1          3.1544    6.8998    1.6867 O.2       1 <0>        -0.2614
     12 C7          1.6157    5.7042    0.3991 C.2       1 <0>        -0.1956
     13 C8          2.0186    4.3883    0.7149 C.2       1 <0>        -0.1455
     14 C9          1.1794    3.5715    0.0095 C.2       1 <0>        -0.0729
     15 N4          0.3320    4.3827   -0.6859 N.2       1 <0>        -0.0665
     16 H1          0.1196    6.3945   -0.8371 H         1 <0>         0.2790
     17 N5          0.6051    5.6141   -0.4430 N.pl3     1 <0>        -0.0590
     18 C10         1.1887    2.0921    0.0019 C.ar      1 <0>        -0.0298
     19 C11         2.3987    1.3990   -0.0138 C.ar      1 <0>        -0.0969
     20 C12         2.4014    0.0193   -0.0217 C.ar      1 <0>        -0.1395
     21 C13         1.2073   -0.6804   -0.0136 C.ar      1 <0>        -0.1086
     22 C14         0.0021   -0.0041    0.0020 C.ar      1 <0>        -0.1569
     23 C15        -0.0167    1.3812    0.0096 C.ar      1 <0>         0.0957
     24 O2         -1.2008    2.0470    0.0189 O.3       1 <0>        -0.2786
     25 H2          3.9807   12.8240    4.0650 H         1 <0>         0.0982
     26 H3          3.5268   14.5082    3.7103 H         1 <0>         0.0815
     27 H4          2.2713   13.2506    3.8122 H         1 <0>         0.0797
     28 H5          2.7642   13.8269    1.4514 H         1 <0>         0.1032
     29 H6          4.9963   13.2907    0.5141 H         1 <0>         0.0798
     30 H7          5.1181   14.5316    1.7844 H         1 <0>         0.0815
     31 H8          5.5721   12.8475    2.1390 H         1 <0>         0.0982
     32 H9          0.9819    8.1864   -0.0922 H         1 <0>         0.2377
     33 H10         2.8202    4.0901    1.3743 H         1 <0>         0.1817
     34 H11         3.3325    1.9416   -0.0198 H         1 <0>         0.1395
     35 H12         3.3389   -0.5167   -0.0346 H         1 <0>         0.1345
     36 H13         1.2173   -1.7603   -0.0198 H         1 <0>         0.1332
     37 H14        -0.9262   -0.5561    0.0079 H         1 <0>         0.1419
     38 H15        -1.5394    2.2350    0.9049 H         1 <0>         0.2271
@<TRIPOS>BOND
     1    1    2 1
     2    1   25 1
     3    1   26 1
     4    1   27 1
     5    2    3 1
     6    2    4 1
     7    2   28 1
     8    3   29 1
     9    3   30 1
    10    3   31 1
    11    4    8 1
    12    4    5 2
    13    5    6 1
    14    6    7 2
    15    7    8 1
    16    7    9 1
    17    9   10 am
    18    9   32 1
    19   10   11 2
    20   10   12 1
    21   12   13 2
    22   12   17 1
    23   13   33 1
    24   13   14 1
    25   14   18 1
    26   14   15 2
    27   15   17 1
    28   16   17 1
    29   18   23 ar
    30   18   19 ar
    31   19   20 ar
    32   19   34 1
    33   20   21 ar
    34   20   35 1
    35   21   22 ar
    36   21   36 1
    37   22   23 ar
    38   22   37 1
    39   23   24 1
    40   24   38 1
@<TRIPOS>MOLECULE
ZINC02359831
   42    44     0     0     0
SMALL
USER_CHARGES

@<TRIPOS>ATOM
      1 C1          3.0185    5.2918   -2.4225 C.3       1 <0>        -0.2315
      2 C2          2.8848    4.9711   -0.9325 C.3       1 <0>        -0.0363
      3 N1          1.7931    4.0144   -0.7349 N.am      1 <0>        -0.2100
      4 C3          2.0572    2.6819   -0.7691 C.2       1 <0>         0.0885
      5 C4          1.0731    1.7750   -0.5895 C.2       1 <0>        -0.2553
      6 C5         -0.2497    2.2114   -0.3686 C.2       1 <0>         0.1741
      7 C6         -0.5086    3.5652   -0.3303 C.2       1 <0>        -0.2664
      8 C7          0.5442    4.4691   -0.5219 C.2       1 <0>         0.3449
      9 O1          0.3289    5.6708   -0.4952 O.2       1 <0>        -0.3670
     10 C8         -1.9037    4.0746   -0.0928 C.3       1 <0>         0.0624
     11 H1         -1.8700    4.9054    0.6119 H         1 <0>         0.1613
     12 C9         -2.7652    2.9797    0.4725 C.2       1 <0>        -0.2477
     13 C10        -2.3889    1.6812    0.3981 C.2       1 <0>         0.2564
     14 O2         -1.2346    1.3074   -0.1811 O.3       1 <0>        -0.1477
     15 N2         -3.2101    0.7182    0.9292 N.pl3     1 <0>        -0.3859
     16 C11        -4.0066    3.3165    1.1018 C.1       1 <0>        -0.0633
     17 N3         -4.9914    3.5837    1.6010 N.1       1 <0>        -0.0598
     18 C12        -2.4909    4.5493   -1.3970 C.ar      1 <0>        -0.0039
     19 C13        -2.5209    3.7033   -2.4902 C.ar      1 <0>        -0.1225
     20 C14        -3.0631    4.1373   -3.6852 C.ar      1 <0>        -0.0963
     21 C15        -3.5679    5.4202   -3.7898 C.ar      1 <0>        -0.1347
     22 C16        -3.5332    6.2676   -2.6984 C.ar      1 <0>        -0.0747
     23 C17        -2.9944    5.8321   -1.5019 C.ar      1 <0>        -0.0797
     24 N4         -2.9572    6.7397   -0.3332 N.pl3     1 <0>         0.5516
     25 O3         -3.1990    6.3090    0.7802 O.2       1 <0>        -0.3522
     26 O4         -2.6848    7.9171   -0.4849 O.3       1 <0>        -0.3455
     27 C18         3.4677    2.2098   -1.0112 C.3       1 <0>        -0.1878
     28 H2          3.8308    6.0036   -2.5695 H         1 <0>         0.0902
     29 H3          3.2336    4.3762   -2.9733 H         1 <0>         0.0717
     30 H4          2.0863    5.7241   -2.7862 H         1 <0>         0.1031
     31 H5          2.6697    5.8867   -0.3816 H         1 <0>         0.1351
     32 H6          3.8170    4.5388   -0.5688 H         1 <0>         0.0918
     33 H7          1.2974    0.7189   -0.6193 H         1 <0>         0.1605
     34 H8         -4.0464    0.9721    1.3501 H         1 <0>         0.2612
     35 H9         -2.9543   -0.2164    0.8837 H         1 <0>         0.2284
     36 H10        -2.1235    2.7024   -2.4095 H         1 <0>         0.1432
     37 H11        -3.0899    3.4753   -4.5380 H         1 <0>         0.1369
     38 H12        -3.9891    5.7602   -4.7243 H         1 <0>         0.1427
     39 H13        -3.9273    7.2698   -2.7802 H         1 <0>         0.1571
     40 H14         3.4920    1.1200   -1.0061 H         1 <0>         0.1026
     41 H15         3.8126    2.5763   -1.9781 H         1 <0>         0.1024
     42 H16         4.1186    2.5914   -0.2247 H         1 <0>         0.1016
@<TRIPOS>BOND
     1    1    2 1
     2    1   28 1
     3    1   29 1
     4    1   30 1
     5    2    3 1
     6    2   31 1
     7    2   32 1
     8    3    8 am
     9    3    4 1
    10    4    5 2
    11    4   27 1
    12    5    6 1
    13    5   33 1
    14    6   14 1
    15    6    7 2
    16    7    8 1
    17    7   10 1
    18    8    9 2
    19   10   11 1
    20   10   12 1
    21   10   18 1
    22   12   13 2
    23   12   16 1
    24   13   14 1
    25   13   15 1
    26   15   34 1
    27   15   35 1
    28   16   17 3
    29   18   23 ar
    30   18   19 ar
    31   19   20 ar
    32   19   36 1
    33   20   21 ar
    34   20   37 1
    35   21   22 ar
    36   21   38 1
    37   22   23 ar
    38   22   39 1
    39   23   24 1
    40   24   25 2
    41   24   26 1
    42   27   40 1
    43   27   41 1
    44   27   42 1
@<TRIPOS>MOLECULE
ZINC02359833
   42    44     0     0     0
SMALL
USER_CHARGES

@<TRIPOS>ATOM
      1 C1         -5.6349   -2.0008   -0.8151 C.3       1 <0>        -0.2317
      2 C2         -4.1739   -1.8960   -1.2571 C.3       1 <0>        -0.0355
      3 N1         -3.3277   -1.6379   -0.0894 N.am      1 <0>        -0.2126
      4 C3         -2.8090   -2.6844    0.6051 C.2       1 <0>         0.0889
      5 C4         -2.0263   -2.4797    1.6860 C.2       1 <0>        -0.2569
      6 C5         -1.7403   -1.1636    2.1045 C.2       1 <0>         0.1679
      7 C6         -2.2694   -0.1074    1.3938 C.2       1 <0>        -0.2546
      8 C7         -3.0766   -0.3679    0.2791 C.2       1 <0>         0.3386
      9 O1         -3.5526    0.5579   -0.3593 O.2       1 <0>        -0.3443
     10 C8         -1.9897    1.3123    1.8042 C.3       1 <0>         0.0556
     11 H1         -2.9119    1.8907    1.7489 H         1 <0>         0.1656
     12 C9         -1.4615    1.3497    3.2114 C.2       1 <0>        -0.2635
     13 C10        -0.9846    0.2340    3.8122 C.2       1 <0>         0.2644
     14 O2         -0.9596   -0.9555    3.1858 O.3       1 <0>        -0.1473
     15 N2         -0.5132    0.3196    5.0984 N.pl3     1 <0>        -0.3850
     16 C11        -1.4633    2.5884    3.9299 C.1       1 <0>        -0.0713
     17 N3         -1.4648    3.5711    4.4999 N.1       1 <0>        -0.0602
     18 C12        -0.9683    1.9100    0.8712 C.ar      1 <0>        -0.0053
     19 C13         0.2469    1.2788    0.6805 C.ar      1 <0>        -0.1215
     20 C14         1.1814    1.8241   -0.1795 C.ar      1 <0>        -0.0967
     21 C15         0.9031    3.0035   -0.8452 C.ar      1 <0>        -0.1344
     22 C16        -0.3095    3.6375   -0.6502 C.ar      1 <0>        -0.0744
     23 C17        -1.2444    3.0919    0.2098 C.ar      1 <0>        -0.0799
     24 N4         -2.5432    3.7706    0.4183 N.pl3     1 <0>         0.5411
     25 O3         -2.5862    4.9831    0.5266 O.2       1 <0>        -0.3583
     26 O4         -3.5689    3.1168    0.4816 O.3       1 <0>        -0.3245
     27 C18        -3.1120   -4.0929    0.1629 C.3       1 <0>        -0.1877
     28 H2         -5.9402   -1.0662   -0.3446 H         1 <0>         0.1066
     29 H3         -6.2645   -2.1928   -1.6839 H         1 <0>         0.0887
     30 H4         -5.7409   -2.8182   -0.1018 H         1 <0>         0.0721
     31 H5         -4.0679   -1.0786   -1.9704 H         1 <0>         0.1325
     32 H6         -3.8687   -2.8306   -1.7276 H         1 <0>         0.0897
     33 H7         -1.6203   -3.3209    2.2282 H         1 <0>         0.1594
     34 H8         -0.5250    1.1707    5.5636 H         1 <0>         0.2608
     35 H9         -0.1684   -0.4710    5.5422 H         1 <0>         0.2292
     36 H10         0.4642    0.3574    1.2002 H         1 <0>         0.1433
     37 H11         2.1289    1.3286   -0.3319 H         1 <0>         0.1368
     38 H12         1.6333    3.4295   -1.5172 H         1 <0>         0.1426
     39 H13        -0.5267    4.5590   -1.1699 H         1 <0>         0.1569
     40 H14        -2.6173   -4.7978    0.8312 H         1 <0>         0.1019
     41 H15        -4.1888   -4.2592    0.1921 H         1 <0>         0.1031
     42 H16        -2.7489   -4.2405   -0.8542 H         1 <0>         0.1000
@<TRIPOS>BOND
     1    1    2 1
     2    1   28 1
     3    1   29 1
     4    1   30 1
     5    2    3 1
     6    2   31 1
     7    2   32 1
     8    3    8 am
     9    3    4 1
    10    4    5 2
    11    4   27 1
    12    5    6 1
    13    5   33 1
    14    6   14 1
    15    6    7 2
    16    7    8 1
    17    7   10 1
    18    8    9 2
    19   10   11 1
    20   10   12 1
    21   10   18 1
    22   12   13 2
    23   12   16 1
    24   13   14 1
    25   13   15 1
    26   15   34 1
    27   15   35 1
    28   16   17 3
    29   18   23 ar
    30   18   19 ar
    31   19   20 ar
    32   19   36 1
    33   20   21 ar
    34   20   37 1
    35   21   22 ar
    36   21   38 1
    37   22   23 ar
    38   22   39 1
    39   23   24 1
    40   24   25 2
    41   24   26 1
    42   27   40 1
    43   27   41 1
    44   27   42 1
@<TRIPOS>MOLECULE
ZINC02362449
   43    46     0     0     0
SMALL
USER_CHARGES

@<TRIPOS>ATOM
      1 C1         -2.0331   -4.5168   -1.0341 C.2       1 <0>        -0.1982
      2 C2         -1.8553   -3.7286   -0.0030 C.2       1 <0>        -0.1641
      3 C3         -0.7309   -2.7252   -0.0067 C.3       1 <0>        -0.2356
      4 S1         -1.4184   -1.0466    0.0079 S.3       1 <0>         0.2598
      5 C4          0.0021   -0.0041    0.0020 C.2       1 <0>        -0.1633
      6 N1          1.2757   -0.4236   -0.0101 N.2       1 <0>        -0.2826
      7 C5          2.0743    0.6108   -0.0092 C.2       1 <0>         0.1659
      8 N2          1.3162    1.7324   -0.0012 N.pl3     1 <0>        -0.1939
      9 N3         -0.0158    1.3105    0.0092 N.2       1 <0>        -0.0778
     10 C6          1.8385    3.0991   -0.0082 C.3       1 <0>         0.1267
     11 H1          1.7891    3.5032   -1.0193 H         1 <0>         0.1149
     12 C7          3.2983    3.0794    0.4662 C.3       1 <0>        -0.1275
     13 H2          3.3247    2.9597    1.4587 H         1 <0>         0.1359
     14 C8          3.9566    4.3843    0.1063 C.2       1 <0>         0.2330
     15 O1          3.8594    5.3416    0.8361 O.2       1 <0>        -0.2503
     16 C9          4.7373    4.4960   -1.1715 C.3       1 <0>        -0.2000
     17 C10         5.7817    3.3731   -1.1734 C.3       1 <0>        -0.1112
     18 C11         5.1014    2.0607   -0.9098 C.2       1 <0>        -0.2035
     19 C12         4.0189    1.9315   -0.1932 C.2       1 <0>         0.0217
     20 N4          3.4656    0.6464   -0.0099 N.pl3     1 <0>        -0.2927
     21 C13         1.0167    3.9576    0.9185 C.ar      1 <0>        -0.1072
     22 C14         0.9284    3.6361    2.2604 C.ar      1 <0>        -0.0793
     23 C15         0.1804    4.4247    3.1130 C.ar      1 <0>        -0.1508
     24 C16        -0.4918    5.5335    2.6197 C.ar      1 <0>         0.0874
     25 C17        -0.4062    5.8507    1.2719 C.ar      1 <0>        -0.1518
     26 C18         0.3478    5.0622    0.4244 C.ar      1 <0>        -0.0833
     27 O2         -1.2324    6.3079    3.4555 O.3       1 <0>        -0.2926
     28 H3         -2.8389   -5.2359   -1.0314 H         1 <0>         0.1173
     29 H4         -1.3739   -4.4476   -1.8868 H         1 <0>         0.1162
     30 H5         -2.5145   -3.7978    0.8497 H         1 <0>         0.1331
     31 H6         -0.1250   -2.8618   -0.9024 H         1 <0>         0.1156
     32 H7         -0.1105   -2.8714    0.8775 H         1 <0>         0.1196
     33 H8          5.1809    5.3912   -1.2139 H         1 <0>         0.1109
     34 H9          4.0678    4.3797   -2.0237 H         1 <0>         0.1114
     35 H10         6.5208    3.5625   -0.3949 H         1 <0>         0.1018
     36 H11         6.2762    3.3379   -2.1441 H         1 <0>         0.1030
     37 H12         5.5348    1.1696   -1.3392 H         1 <0>         0.1369
     38 H13         4.0106   -0.1476    0.1058 H         1 <0>         0.2721
     39 H14         1.4483    2.7702    2.6431 H         1 <0>         0.1349
     40 H15         0.1153    4.1756    4.1619 H         1 <0>         0.1428
     41 H16        -0.9282    6.7136    0.8855 H         1 <0>         0.1425
     42 H17         0.4150    5.3089   -0.6249 H         1 <0>         0.1319
     43 H18        -2.1554    6.0303    3.5343 H         1 <0>         0.2302
@<TRIPOS>BOND
     1    1    2 2
     2    1   28 1
     3    1   29 1
     4    2    3 1
     5    2   30 1
     6    3    4 1
     7    3   31 1
     8    3   32 1
     9    4    5 1
    10    5    9 2
    11    5    6 1
    12    6    7 2
    13    7   20 1
    14    7    8 1
    15    8    9 1
    16    8   10 1
    17   10   11 1
    18   10   12 1
    19   10   21 1
    20   12   13 1
    21   12   19 1
    22   12   14 1
    23   14   15 2
    24   14   16 1
    25   16   17 1
    26   16   33 1
    27   16   34 1
    28   17   18 1
    29   17   35 1
    30   17   36 1
    31   18   19 2
    32   18   37 1
    33   19   20 1
    34   20   38 1
    35   21   26 ar
    36   21   22 ar
    37   22   23 ar
    38   22   39 1
    39   23   24 ar
    40   23   40 1
    41   24   25 ar
    42   24   27 1
    43   25   26 ar
    44   25   41 1
    45   26   42 1
    46   27   43 1
@<TRIPOS>MOLECULE
ZINC02364272
   44    46     0     0     0
SMALL
USER_CHARGES

@<TRIPOS>ATOM
      1 C1         -1.3811   -4.0825   -4.7933 C.3       1 <0>        -0.1868
      2 C2         -0.7116   -3.5911   -3.5358 C.2       1 <0>         0.0793
      3 C3         -1.3698   -3.6639   -2.3590 C.2       1 <0>        -0.2503
      4 C4         -0.7479   -3.2052   -1.1792 C.2       1 <0>         0.1621
      5 C5          0.5275   -2.6874   -1.2548 C.2       1 <0>        -0.2472
      6 C6          1.1717   -2.6322   -2.4975 C.2       1 <0>         0.3466
      7 O1          2.3016   -2.1764   -2.5793 O.2       1 <0>        -0.3413
      8 N1          0.5459   -3.0803   -3.6017 N.am      1 <0>        -0.2095
      9 C7          1.2315   -3.0170   -4.8948 C.3       1 <0>        -0.0302
     10 C8          0.9239   -1.6789   -5.5701 C.3       1 <0>        -0.0325
     11 O2          1.4801   -0.6151   -4.7948 O.3       1 <0>        -0.2565
     12 C9          1.2483    0.6849   -5.3410 C.3       1 <0>        -0.0636
     13 C10         1.2281   -2.1862   -0.0219 C.3       1 <0>         0.0840
     14 H1          2.2612   -2.5337   -0.0292 H         1 <0>         0.1382
     15 C11         0.5378   -2.7007    1.2107 C.2       1 <0>        -0.2573
     16 C12        -0.7160   -3.2084    1.1531 C.2       1 <0>         0.2589
     17 O3         -1.4024   -3.2782   -0.0009 O.3       1 <0>        -0.1474
     18 N2         -1.3033   -3.6655    2.3063 N.pl3     1 <0>        -0.3882
     19 C13         1.2194   -2.6532    2.4692 C.1       1 <0>        -0.0610
     20 N3          1.7602   -2.6156    3.4676 N.1       1 <0>        -0.0742
     21 C14         1.2080   -0.6793   -0.0136 C.ar      1 <0>        -0.1017
     22 C15         0.0021   -0.0041    0.0020 C.ar      1 <0>        -0.0909
     23 C16        -0.0167    1.3780    0.0096 C.ar      1 <0>        -0.1502
     24 C17         1.1706    2.0866    0.0021 C.ar      1 <0>        -0.1058
     25 C18         2.3773    1.4137   -0.0131 C.ar      1 <0>        -0.1689
     26 C19         2.3974    0.0291   -0.0212 C.ar      1 <0>         0.1282
     27 F1          3.5766   -0.6299   -0.0370 F         1 <0>        -0.0965
     28 H2         -2.3770   -4.4546   -4.5531 H         1 <0>         0.1025
     29 H3         -1.4619   -3.2620   -5.5063 H         1 <0>         0.0977
     30 H4         -0.7884   -4.8863   -5.2301 H         1 <0>         0.0976
     31 H5         -2.3689   -4.0723   -2.3214 H         1 <0>         0.1575
     32 H6          2.3067   -3.1075   -4.7408 H         1 <0>         0.1435
     33 H7          0.8854   -3.8325   -5.5299 H         1 <0>         0.0983
     34 H8          1.3602   -1.6672   -6.5689 H         1 <0>         0.0728
     35 H9         -0.1558   -1.5488   -5.6438 H         1 <0>         0.0617
     36 H10         1.6914    0.7456   -6.3350 H         1 <0>         0.0519
     37 H11         0.1753    0.8640   -5.4099 H         1 <0>         0.0510
     38 H12         1.7014    1.4366   -4.6947 H         1 <0>         0.1094
     39 H13        -0.8206   -3.6221    3.1466 H         1 <0>         0.2592
     40 H14        -2.2010   -4.0320    2.2811 H         1 <0>         0.2276
     41 H15        -0.9259   -0.5565    0.0079 H         1 <0>         0.1316
     42 H16        -0.9594    1.9048    0.0170 H         1 <0>         0.1278
     43 H17         1.1547    3.1665    0.0081 H         1 <0>         0.1301
     44 H18         3.3046    1.9675   -0.0187 H         1 <0>         0.1424
@<TRIPOS>BOND
     1    1    2 1
     2    1   28 1
     3    1   29 1
     4    1   30 1
     5    2    8 1
     6    2    3 2
     7    3    4 1
     8    3   31 1
     9    4   17 1
    10    4    5 2
    11    5    6 1
    12    5   13 1
    13    6    7 2
    14    6    8 am
    15    8    9 1
    16    9   10 1
    17    9   32 1
    18    9   33 1
    19   10   11 1
    20   10   34 1
    21   10   35 1
    22   11   12 1
    23   12   36 1
    24   12   37 1
    25   12   38 1
    26   13   14 1
    27   13   15 1
    28   13   21 1
    29   15   16 2
    30   15   19 1
    31   16   17 1
    32   16   18 1
    33   18   39 1
    34   18   40 1
    35   19   20 3
    36   21   26 ar
    37   21   22 ar
    38   22   23 ar
    39   22   41 1
    40   23   24 ar
    41   23   42 1
    42   24   25 ar
    43   24   43 1
    44   25   26 ar
    45   25   44 1
    46   26   27 1
@<TRIPOS>MOLECULE
ZINC02364274
   44    46     0     0     0
SMALL
USER_CHARGES

@<TRIPOS>ATOM
      1 C1          2.4568    1.0256   -0.0167 C.3       1 <0>        -0.1869
      2 C2          1.1461    1.7691    0.0006 C.2       1 <0>         0.0793
      3 C3         -0.0126    1.0758    0.0080 C.2       1 <0>        -0.2503
      4 C4         -1.2420    1.7667    0.0175 C.2       1 <0>         0.1616
      5 C5         -1.2331    3.1455    0.0318 C.2       1 <0>        -0.2467
      6 C6         -0.0066    3.8221    0.0238 C.2       1 <0>         0.3466
      7 O1          0.0165    5.0430    0.0314 O.2       1 <0>        -0.3413
      8 N1          1.1465    3.1279    0.0082 N.am      1 <0>        -0.2095
      9 C7          2.4220    3.8486   -0.0004 C.3       1 <0>        -0.0303
     10 C8          2.8518    4.1075   -1.4457 C.3       1 <0>        -0.0324
     11 O2          1.9158    4.9881   -2.0706 O.3       1 <0>        -0.2578
     12 C9          2.2265    5.2962   -3.4310 C.3       1 <0>        -0.0639
     13 C10        -2.5208    3.9224    0.0497 C.3       1 <0>         0.0835
     14 H1         -2.4520    4.7522   -0.6537 H         1 <0>         0.1405
     15 C11        -3.6674    3.0328   -0.3436 C.2       1 <0>        -0.2563
     16 C12        -3.5460    1.6844   -0.3314 C.2       1 <0>         0.2586
     17 O3         -2.4022    1.0766    0.0291 O.3       1 <0>        -0.1472
     18 N2         -4.6221    0.9153   -0.6982 N.pl3     1 <0>        -0.3884
     19 C13        -4.9111    3.6228   -0.7381 C.1       1 <0>        -0.0608
     20 N3         -5.8978    4.0908   -1.0510 N.1       1 <0>        -0.0744
     21 C14        -2.7597    4.4615    1.4365 C.ar      1 <0>        -0.1039
     22 C15        -2.8771    3.5929    2.5053 C.ar      1 <0>        -0.0929
     23 C16        -3.0958    4.0872    3.7775 C.ar      1 <0>        -0.1500
     24 C17        -3.1969    5.4508    3.9826 C.ar      1 <0>        -0.1050
     25 C18        -3.0803    6.3210    2.9157 C.ar      1 <0>        -0.1693
     26 C19        -2.8560    5.8273    1.6415 C.ar      1 <0>         0.1258
     27 F1         -2.7358    6.6775    0.5984 F         1 <0>        -0.0957
     28 H2          2.2658   -0.0475   -0.0211 H         1 <0>         0.1025
     29 H3          3.0176    1.2985   -0.9106 H         1 <0>         0.0974
     30 H4          3.0351    1.2881    0.8692 H         1 <0>         0.0978
     31 H5          0.0021   -0.0041    0.0020 H         1 <0>         0.1575
     32 H6          2.3056    4.7993    0.5199 H         1 <0>         0.1439
     33 H7          3.1811    3.2497    0.5027 H         1 <0>         0.0985
     34 H8          3.8416    4.5639   -1.4542 H         1 <0>         0.0732
     35 H9          2.8822    3.1638   -1.9903 H         1 <0>         0.0615
     36 H10         3.2033    5.7773   -3.4806 H         1 <0>         0.0526
     37 H11         2.2439    4.3771   -4.0168 H         1 <0>         0.0510
     38 H12         1.4692    5.9691   -3.8332 H         1 <0>         0.1094
     39 H13        -5.4540    1.3392   -0.9611 H         1 <0>         0.2591
     40 H14        -4.5506   -0.0520   -0.6946 H         1 <0>         0.2276
     41 H15        -2.7983    2.5276    2.3462 H         1 <0>         0.1321
     42 H16        -3.1874    3.4077    4.6119 H         1 <0>         0.1286
     43 H17        -3.3674    5.8359    4.9771 H         1 <0>         0.1312
     44 H18        -3.1596    7.3861    3.0761 H         1 <0>         0.1430
@<TRIPOS>BOND
     1    1    2 1
     2    1   28 1
     3    1   29 1
     4    1   30 1
     5    2    8 1
     6    2    3 2
     7    3    4 1
     8    3   31 1
     9    4   17 1
    10    4    5 2
    11    5    6 1
    12    5   13 1
    13    6    7 2
    14    6    8 am
    15    8    9 1
    16    9   10 1
    17    9   32 1
    18    9   33 1
    19   10   11 1
    20   10   34 1
    21   10   35 1
    22   11   12 1
    23   12   36 1
    24   12   37 1
    25   12   38 1
    26   13   14 1
    27   13   15 1
    28   13   21 1
    29   15   16 2
    30   15   19 1
    31   16   17 1
    32   16   18 1
    33   18   39 1
    34   18   40 1
    35   19   20 3
    36   21   26 ar
    37   21   22 ar
    38   22   23 ar
    39   22   41 1
    40   23   24 ar
    41   23   42 1
    42   24   25 ar
    43   24   43 1
    44   25   26 ar
    45   25   44 1
    46   26   27 1
@<TRIPOS>MOLECULE
ZINC02366590
   45    47     0     0     0
SMALL
USER_CHARGES

@<TRIPOS>ATOM
      1 C1         -3.4538    5.6373   -6.1828 C.3       1 <0>        -0.0641
      2 O1         -3.8106    5.8030   -4.8090 O.3       1 <0>        -0.2089
      3 C2         -3.0980    5.0909   -3.8960 C.ar      1 <0>         0.1102
      4 C3         -3.3921    5.2048   -2.5450 C.ar      1 <0>        -0.1542
      5 C4         -2.6686    4.4817   -1.6174 C.ar      1 <0>        -0.0605
      6 C5         -1.6466    3.6412   -2.0368 C.ar      1 <0>         0.0044
      7 C6         -1.3486    3.5323   -3.3881 C.ar      1 <0>        -0.0614
      8 C7         -2.0767    4.2510   -4.3156 C.ar      1 <0>        -0.2172
      9 N1         -0.9110    2.9061   -1.0943 N.am      1 <0>        -0.2580
     10 C8          0.3930    3.2006   -0.9073 C.2       1 <0>         0.3179
     11 O2          0.9344    4.0846   -1.5361 O.2       1 <0>        -0.2986
     12 C9          1.1559    2.3846    0.1192 C.3       1 <0>        -0.1502
     13 H1          1.9981    1.9091   -0.3835 H         1 <0>         0.1607
     14 C10         0.3673    1.3078    0.8402 C.2       1 <0>         0.3284
     15 O3          0.8870    0.6028    1.6784 O.2       1 <0>        -0.3067
     16 N2         -0.9347    1.1640    0.5140 N.am      1 <0>        -0.3396
     17 C11        -1.5217    1.9304   -0.4122 C.2       1 <0>         0.4072
     18 O4         -2.6966    1.7295   -0.6471 O.2       1 <0>        -0.3495
     19 C12         1.7103    3.3311    1.1525 C.2       1 <0>         0.0165
     20 C13         2.6146    4.2293    0.8076 C.2       1 <0>        -0.1931
     21 N3          1.2700    3.2587    2.4680 N.pl3     1 <0>        -0.3345
     22 C14        -0.0293    3.6653    2.7947 C.ar      1 <0>         0.0340
     23 C15        -0.8223    4.2903    1.8439 C.ar      1 <0>        -0.1657
     24 C16        -2.1049    4.6910    2.1688 C.ar      1 <0>        -0.1430
     25 C17        -2.6013    4.4707    3.4404 C.ar      1 <0>        -0.1214
     26 C18        -1.8180    3.8479    4.3944 C.ar      1 <0>        -0.1729
     27 C19        -0.5322    3.4379    4.0759 C.ar      1 <0>         0.0730
     28 N4          0.2607    2.8024    5.0386 N.pl3     1 <0>        -0.4263
     29 H2         -2.4147    5.9335   -6.3266 H         1 <0>         0.0698
     30 H3         -3.5762    4.5920   -6.4664 H         1 <0>         0.0697
     31 H4         -4.0983    6.2599   -6.8032 H         1 <0>         0.1101
     32 H5         -4.1873    5.8587   -2.2188 H         1 <0>         0.1502
     33 H6         -2.8977    4.5704   -0.5657 H         1 <0>         0.1478
     34 H7         -0.5504    2.8821   -3.7145 H         1 <0>         0.1378
     35 H8         -1.8478    4.1630   -5.3674 H         1 <0>         0.1407
     36 H9         -1.4593    0.4820    0.9618 H         1 <0>         0.2737
     37 H10         3.0669    4.8571    1.5610 H         1 <0>         0.1325
     38 H11         2.9018    4.3362   -0.2280 H         1 <0>         0.1442
     39 H12         1.8627    2.9263    3.1602 H         1 <0>         0.2385
     40 H13        -0.4377    4.4643    0.8498 H         1 <0>         0.1322
     41 H14        -2.7212    5.1773    1.4270 H         1 <0>         0.1281
     42 H15        -3.6040    4.7857    3.6890 H         1 <0>         0.1299
     43 H16        -2.2092    3.6768    5.3864 H         1 <0>         0.1313
     44 H17         1.1613    2.5195    4.8153 H         1 <0>         0.2149
     45 H18        -0.0904    2.6450    5.9290 H         1 <0>         0.2223
@<TRIPOS>BOND
     1    1    2 1
     2    1   29 1
     3    1   30 1
     4    1   31 1
     5    2    3 1
     6    3    8 ar
     7    3    4 ar
     8    4    5 ar
     9    4   32 1
    10    5    6 ar
    11    5   33 1
    12    6    7 ar
    13    6    9 1
    14    7    8 ar
    15    7   34 1
    16    8   35 1
    17    9   17 am
    18    9   10 am
    19   10   11 2
    20   10   12 1
    21   12   13 1
    22   12   14 1
    23   12   19 1
    24   14   15 2
    25   14   16 am
    26   16   17 am
    27   16   36 1
    28   17   18 2
    29   19   20 2
    30   19   21 1
    31   20   37 1
    32   20   38 1
    33   21   22 1
    34   21   39 1
    35   22   27 ar
    36   22   23 ar
    37   23   24 ar
    38   23   40 1
    39   24   25 ar
    40   24   41 1
    41   25   26 ar
    42   25   42 1
    43   26   27 ar
    44   26   43 1
    45   27   28 1
    46   28   44 1
    47   28   45 1
@<TRIPOS>MOLECULE
ZINC02366591
   45    47     0     0     0
SMALL
USER_CHARGES

@<TRIPOS>ATOM
      1 C1         -8.8283   -1.0312    6.5190 C.3       1 <0>        -0.0644
      2 O1         -8.4615    0.1651    5.8288 O.3       1 <0>        -0.2083
      3 C2         -7.7779    0.0199    4.6626 C.ar      1 <0>         0.1120
      4 C3         -7.3910    1.1402    3.9416 C.ar      1 <0>        -0.1534
      5 C4         -6.6967    0.9932    2.7571 C.ar      1 <0>        -0.0598
      6 C5         -6.3863   -0.2757    2.2876 C.ar      1 <0>         0.0018
      7 C6         -6.7787   -1.3965    3.0064 C.ar      1 <0>        -0.0593
      8 C7         -7.4680   -1.2484    4.1938 C.ar      1 <0>        -0.2162
      9 N1         -5.6810   -0.4256    1.0834 N.am      1 <0>        -0.2623
     10 C8         -4.4284   -0.9277    1.1164 C.2       1 <0>         0.3102
     11 O2         -3.9072   -1.2490    2.1628 O.2       1 <0>        -0.2734
     12 C9         -3.6974   -1.0758   -0.2046 C.3       1 <0>        -0.1357
     13 H1         -3.4279   -2.1252   -0.3240 H         1 <0>         0.1704
     14 C10        -4.4565   -0.6395   -1.4435 C.2       1 <0>         0.3129
     15 O3         -3.9585   -0.7180   -2.5461 O.2       1 <0>        -0.3056
     16 N2         -5.7068   -0.1602   -1.2726 N.am      1 <0>        -0.3479
     17 C11        -6.2706   -0.0672   -0.0629 C.2       1 <0>         0.3996
     18 O4         -7.4003    0.3754   -0.0007 O.2       1 <0>        -0.3469
     19 C12        -2.4239   -0.2737   -0.1283 C.2       1 <0>         0.0331
     20 C13        -1.2550   -0.8877   -0.1437 C.2       1 <0>        -0.2746
     21 N3         -2.4796    1.1115   -0.0416 N.pl3     1 <0>        -0.3290
     22 C14        -1.3015    1.8651   -0.1073 C.ar      1 <0>        -0.0258
     23 C15        -0.8457    2.5425    1.0139 C.ar      1 <0>        -0.0871
     24 C16         0.3210    3.2813    0.9482 C.ar      1 <0>        -0.1838
     25 C17         1.0341    3.3516   -0.2343 C.ar      1 <0>        -0.0806
     26 C18         0.5842    2.6841   -1.3585 C.ar      1 <0>        -0.2095
     27 C19        -0.5853    1.9410   -1.3020 C.ar      1 <0>         0.1212
     28 N4         -1.0429    1.2648   -2.4389 N.pl3     1 <0>        -0.4100
     29 H2         -7.9300   -1.5935    6.7741 H         1 <0>         0.0706
     30 H3         -9.3671   -0.7739    7.4309 H         1 <0>         0.1109
     31 H4         -9.4676   -1.6388    5.8785 H         1 <0>         0.0698
     32 H5         -7.6325    2.1274    4.3069 H         1 <0>         0.1510
     33 H6         -6.3948    1.8654    2.1962 H         1 <0>         0.1428
     34 H7         -6.5413   -2.3840    2.6392 H         1 <0>         0.1390
     35 H8         -7.7697   -2.1203    4.7552 H         1 <0>         0.1419
     36 H9         -6.2117    0.1250   -2.0502 H         1 <0>         0.2735
     37 H10        -1.2079   -1.9555   -0.2991 H         1 <0>         0.1223
     38 H11        -0.3461   -0.3222   -0.0011 H         1 <0>         0.1433
     39 H12        -3.3349    1.5568    0.0644 H         1 <0>         0.2249
     40 H13        -1.3998    2.4893    1.9394 H         1 <0>         0.1369
     41 H14         0.6767    3.8049    1.8233 H         1 <0>         0.1309
     42 H15         1.9451    3.9298   -0.2801 H         1 <0>         0.1290
     43 H16         1.1437    2.7412   -2.2805 H         1 <0>         0.1320
     44 H17        -0.5418    1.3156   -3.2679 H         1 <0>         0.2192
     45 H18        -1.8611    0.7454   -2.3977 H         1 <0>         0.2347
@<TRIPOS>BOND
     1    1    2 1
     2    1   29 1
     3    1   30 1
     4    1   31 1
     5    2    3 1
     6    3    8 ar
     7    3    4 ar
     8    4    5 ar
     9    4   32 1
    10    5    6 ar
    11    5   33 1
    12    6    7 ar
    13    6    9 1
    14    7    8 ar
    15    7   34 1
    16    8   35 1
    17    9   17 am
    18    9   10 am
    19   10   11 2
    20   10   12 1
    21   12   13 1
    22   12   14 1
    23   12   19 1
    24   14   15 2
    25   14   16 am
    26   16   17 am
    27   16   36 1
    28   17   18 2
    29   19   20 2
    30   19   21 1
    31   20   37 1
    32   20   38 1
    33   21   22 1
    34   21   39 1
    35   22   27 ar
    36   22   23 ar
    37   23   24 ar
    38   23   40 1
    39   24   25 ar
    40   24   41 1
    41   25   26 ar
    42   25   42 1
    43   26   27 ar
    44   26   43 1
    45   27   28 1
    46   28   44 1
    47   28   45 1
@<TRIPOS>MOLECULE
ZINC02370715
   40    43     0     0     0
SMALL
USER_CHARGES

@<TRIPOS>ATOM
      1 C1         -0.0198    1.0764    0.0081 C.3       1 <0>        -0.0623
      2 O1         -0.6911    1.5336    1.1839 O.3       1 <0>        -0.2093
      3 C2         -0.1563    1.1723    2.3793 C.ar      1 <0>         0.1341
      4 C3          0.9929    0.3855    2.4132 C.ar      1 <0>        -0.2466
      5 C4          1.5448    0.0195    3.6070 C.ar      1 <0>        -0.0174
      6 C5          0.9501    0.4247    4.8037 C.ar      1 <0>        -0.1153
      7 C6         -0.2133    1.2142    4.7788 C.ar      1 <0>         0.0777
      8 C7         -0.7597    1.5834    3.5532 C.ar      1 <0>        -0.1993
      9 N1         -0.5885    1.4711    6.0806 N.pl3     1 <0>        -0.1609
     10 H1         -1.3611    1.9954    6.3433 H         1 <0>         0.2591
     11 C8          0.2976    0.8714    6.9571 C.2       1 <0>        -0.1259
     12 C9          1.2756    0.2063    6.2191 C.2       1 <0>         0.0041
     13 N2          2.2555   -0.4580    6.8561 N.2       1 <0>        -0.1646
     14 C10         2.3106   -0.4935    8.1579 C.2       1 <0>        -0.0003
     15 N3          1.3878    0.1341    8.9325 N.am      1 <0>        -0.1977
     16 C11         0.3734    0.8224    8.3660 C.2       1 <0>         0.3704
     17 O2         -0.4586    1.3888    9.0560 O.2       1 <0>        -0.3339
     18 N4          1.4891    0.0667   10.3282 N.2       1 <0>         0.0136
     19 C12         2.4007   -0.6785   10.8784 C.2       1 <0>        -0.0834
     20 C13         2.4375   -0.8371   12.3411 C.ar      1 <0>        -0.1018
     21 C14         3.4169   -1.6381   12.9360 C.ar      1 <0>        -0.0757
     22 C15         3.4479   -1.7833   14.3049 C.ar      1 <0>        -0.1732
     23 C16         2.5080   -1.1357   15.0992 C.ar      1 <0>         0.1078
     24 C17         1.5324   -0.3383   14.5190 C.ar      1 <0>        -0.1941
     25 C18         1.4934   -0.1803   13.1447 C.ar      1 <0>         0.1351
     26 O3          0.5421    0.6036   12.5758 O.3       1 <0>        -0.2647
     27 O4          2.5457   -1.2842   16.4486 O.3       1 <0>        -0.2906
     28 H2          0.0011   -0.0133    0.0022 H         1 <0>         0.0700
     29 H3          1.0006    1.4595    0.0002 H         1 <0>         0.0702
     30 H4         -0.5491    1.4345   -0.8749 H         1 <0>         0.1096
     31 H5          1.4524    0.0666    1.4893 H         1 <0>         0.1388
     32 H6          2.4383   -0.5868    3.6258 H         1 <0>         0.1443
     33 H7         -1.6527    2.1898    3.5193 H         1 <0>         0.1473
     34 H8          3.1130   -1.0371    8.6344 H         1 <0>         0.1897
     35 H9          3.1313   -1.1815   10.2622 H         1 <0>         0.1218
     36 H10         4.1483   -2.1429   12.3222 H         1 <0>         0.1371
     37 H11         4.2052   -2.4021   14.7633 H         1 <0>         0.1464
     38 H12         0.8050    0.1627   15.1406 H         1 <0>         0.1574
     39 H13        -0.2716    0.1328   12.3492 H         1 <0>         0.2471
     40 H14         3.0916   -0.6270   16.9015 H         1 <0>         0.2356
@<TRIPOS>BOND
     1    1    2 1
     2    1   28 1
     3    1   29 1
     4    1   30 1
     5    2    3 1
     6    3    8 ar
     7    3    4 ar
     8    4    5 ar
     9    4   31 1
    10    5    6 ar
    11    5   32 1
    12    6   12 1
    13    6    7 ar
    14    7    8 ar
    15    7    9 1
    16    8   33 1
    17    9   10 1
    18    9   11 1
    19   11   16 1
    20   11   12 2
    21   12   13 1
    22   13   14 2
    23   14   15 1
    24   14   34 1
    25   15   16 am
    26   15   18 1
    27   16   17 2
    28   18   19 2
    29   19   20 1
    30   19   35 1
    31   20   25 ar
    32   20   21 ar
    33   21   22 ar
    34   21   36 1
    35   22   23 ar
    36   22   37 1
    37   23   24 ar
    38   23   27 1
    39   24   25 ar
    40   24   38 1
    41   25   26 1
    42   26   39 1
    43   27   40 1
@<TRIPOS>MOLECULE
ZINC02390764
   40    42     0     0     0
SMALL
USER_CHARGES

@<TRIPOS>ATOM
      1 C1         -2.5246    5.7811   -0.7675 C.3       1 <0>        -0.1731
      2 C2         -1.1427    6.1277   -0.2765 C.2       1 <0>        -0.0662
      3 C3         -0.5658    7.3621   -0.2743 C.2       1 <0>        -0.1177
      4 N1          0.6707    7.2565    0.2354 N.2       1 <0>        -0.0429
      5 N2          0.9062    6.0330    0.5593 N.2       1 <0>         0.0068
      6 N3         -0.2296    5.2692    0.2535 N.pl3     1 <0>        -0.1082
      7 C4         -0.3905    3.8901    0.4498 C.ar      1 <0>         0.0620
      8 C5         -1.6307    3.3785    0.8077 C.ar      1 <0>        -0.1052
      9 C6         -1.7871    2.0193    0.9961 C.ar      1 <0>        -0.1184
     10 C7         -0.7077    1.1692    0.8385 C.ar      1 <0>        -0.0706
     11 C8          0.5283    1.6757    0.4817 C.ar      1 <0>        -0.0967
     12 C9          0.6898    3.0338    0.2872 C.ar      1 <0>        -0.0608
     13 N4          1.6798    0.7619    0.3084 N.pl3     1 <0>         0.5482
     14 O1          1.5382   -0.4356    0.4802 O.2       1 <0>        -0.3482
     15 O2          2.7689    1.2075   -0.0059 O.3       1 <0>        -0.3409
     16 C10        -1.1964    8.6116   -0.7600 C.2       1 <0>         0.1202
     17 C11        -0.4743    9.7284   -0.8584 C.2       1 <0>        -0.3133
     18 N5         -2.5454    8.6198   -1.1145 N.pl3     1 <0>        -0.2891
     19 N6         -3.1418    9.8014   -1.5738 N.am      1 <0>        -0.2640
     20 C12        -4.4452    9.8094   -1.9163 C.2       1 <0>         0.3306
     21 O3         -5.1020    8.7937   -1.8268 O.2       1 <0>        -0.3851
     22 C13        -5.0867   11.0804   -2.4105 C.3       1 <0>        -0.2128
     23 C14        -6.1261   11.7452   -1.5057 C.3       1 <0>        -0.1916
     24 C15        -6.5700   11.0251   -2.7815 C.3       1 <0>        -0.1727
     25 H1         -3.2466    5.9471    0.0321 H         1 <0>         0.1054
     26 H2         -2.7759    6.4116   -1.6205 H         1 <0>         0.1221
     27 H3         -2.5510    4.7341   -1.0693 H         1 <0>         0.0987
     28 H4         -2.4730    4.0423    0.9350 H         1 <0>         0.1550
     29 H5         -2.7524    1.6204    1.2709 H         1 <0>         0.1569
     30 H6         -0.8316    0.1071    0.9900 H         1 <0>         0.1720
     31 H7          1.6555    3.4289    0.0085 H         1 <0>         0.1901
     32 H8         -0.9546   10.6612   -1.1142 H         1 <0>         0.1065
     33 H9          0.5909    9.7000   -0.6823 H         1 <0>         0.1485
     34 H10        -3.0706    7.8075   -1.0429 H         1 <0>         0.2735
     35 H11        -2.6165   10.6137   -1.6454 H         1 <0>         0.2568
     36 H12        -4.4439   11.7322   -3.0021 H         1 <0>         0.1299
     37 H13        -6.3459   11.2633   -0.5530 H         1 <0>         0.1248
     38 H14        -6.1673   12.8344   -1.5023 H         1 <0>         0.1155
     39 H15        -6.9031   11.6409   -3.6169 H         1 <0>         0.1152
     40 H16        -7.0818   10.0694   -2.6685 H         1 <0>         0.1388
@<TRIPOS>BOND
     1    1    2 1
     2    1   25 1
     3    1   26 1
     4    1   27 1
     5    2    6 1
     6    2    3 2
     7    3    4 1
     8    3   16 1
     9    4    5 2
    10    5    6 1
    11    6    7 1
    12    7   12 ar
    13    7    8 ar
    14    8    9 ar
    15    8   28 1
    16    9   10 ar
    17    9   29 1
    18   10   11 ar
    19   10   30 1
    20   11   12 ar
    21   11   13 1
    22   12   31 1
    23   13   14 2
    24   13   15 1
    25   16   17 2
    26   16   18 1
    27   17   32 1
    28   17   33 1
    29   18   19 1
    30   18   34 1
    31   19   20 am
    32   19   35 1
    33   20   21 2
    34   20   22 1
    35   22   24 1
    36   22   23 1
    37   22   36 1
    38   23   24 1
    39   23   37 1
    40   23   38 1
    41   24   39 1
    42   24   40 1
@<TRIPOS>MOLECULE
ZINC02391227
   42    43     0     0     0
SMALL
USER_CHARGES

@<TRIPOS>ATOM
      1 C1          0.3339   -2.9722   -1.4076 C.2       1 <0>        -0.1796
      2 C2         -0.2135   -1.8095   -1.1534 C.2       1 <0>        -0.2100
      3 C3         -0.0563   -1.1843    0.2087 C.3       1 <0>         0.0176
      4 N1          0.5076    0.1604    0.0667 N.am      1 <0>        -0.3131
      5 C4          1.8488    0.3130    0.0830 C.2       1 <0>         0.3067
      6 O1          2.5883   -0.6389    0.2123 O.2       1 <0>        -0.2816
      7 C5          2.3962    1.7198   -0.0672 C.3       1 <0>        -0.1327
      8 H1          3.0047    1.9423    0.8094 H         1 <0>         0.1780
      9 C6          1.3695    2.8257   -0.2222 C.2       1 <0>         0.3048
     10 O2          1.7067    3.9833   -0.3490 O.2       1 <0>        -0.2809
     11 N2          0.0665    2.4731   -0.2141 N.am      1 <0>        -0.3500
     12 C7         -0.3220    1.2003   -0.0756 C.2       1 <0>         0.3981
     13 O3         -1.5152    0.9722   -0.0797 O.2       1 <0>        -0.3558
     14 C8          3.2947    1.7467   -1.2768 C.2       1 <0>         0.0501
     15 C9          4.5671    2.0726   -1.1466 C.2       1 <0>        -0.2747
     16 N3          2.7838    1.4285   -2.5287 N.pl3     1 <0>        -0.3064
     17 N4          3.6190    1.4536   -3.6532 N.pl3     1 <0>        -0.1947
     18 C10         3.1233    1.1449   -4.8679 C.2       1 <0>         0.1808
     19 S1          4.1440    1.1755   -6.2420 S.2       1 <0>        -0.3681
     20 N5          1.8241    0.8121   -5.0008 N.pl3     1 <0>        -0.2689
     21 C11         1.2882    0.5792   -6.2718 C.ar      1 <0>         0.0314
     22 C12         0.0629    1.1312   -6.6223 C.ar      1 <0>        -0.1368
     23 C13        -0.4611    0.9033   -7.8797 C.ar      1 <0>        -0.1271
     24 C14         0.2281    0.1181   -8.7857 C.ar      1 <0>        -0.1205
     25 C15         1.4458   -0.4373   -8.4379 C.ar      1 <0>        -0.1240
     26 C16         1.9775   -0.2093   -7.1839 C.ar      1 <0>        -0.0812
     27 H2          0.8978   -3.4827   -0.6409 H         1 <0>         0.1211
     28 H3          0.2213   -3.4203   -2.3838 H         1 <0>         0.1213
     29 H4         -0.7774   -1.2990   -1.9201 H         1 <0>         0.1318
     30 H5          0.6118   -1.7964    0.8146 H         1 <0>         0.1225
     31 H6         -1.0304   -1.1204    0.6937 H         1 <0>         0.1318
     32 H7         -0.6082    3.1625   -0.3158 H         1 <0>         0.2762
     33 H8          5.2110    2.0919   -2.0135 H         1 <0>         0.1253
     34 H9          4.9643    2.3200   -0.1733 H         1 <0>         0.1388
     35 H10         1.8487    1.1890   -2.6244 H         1 <0>         0.2465
     36 H11         4.5541    1.6931   -3.5576 H         1 <0>         0.3008
     37 H12         1.2606    0.7341   -4.2151 H         1 <0>         0.2213
     38 H13        -0.4779    1.7408   -5.9136 H         1 <0>         0.1269
     39 H14        -1.4121    1.3354   -8.1542 H         1 <0>         0.1329
     40 H15        -0.1858   -0.0620   -9.7668 H         1 <0>         0.1311
     41 H16         1.9814   -1.0504   -9.1477 H         1 <0>         0.1381
     42 H17         2.9283   -0.6440   -6.9127 H         1 <0>         0.1723
@<TRIPOS>BOND
     1    1    2 2
     2    1   27 1
     3    1   28 1
     4    2    3 1
     5    2   29 1
     6    3    4 1
     7    3   30 1
     8    3   31 1
     9    4   12 am
    10    4    5 am
    11    5    6 2
    12    5    7 1
    13    7    8 1
    14    7    9 1
    15    7   14 1
    16    9   10 2
    17    9   11 am
    18   11   12 am
    19   11   32 1
    20   12   13 2
    21   14   15 2
    22   14   16 1
    23   15   33 1
    24   15   34 1
    25   16   17 1
    26   16   35 1
    27   17   18 1
    28   17   36 1
    29   18   19 2
    30   18   20 1
    31   20   21 1
    32   20   37 1
    33   21   26 ar
    34   21   22 ar
    35   22   23 ar
    36   22   38 1
    37   23   24 ar
    38   23   39 1
    39   24   25 ar
    40   24   40 1
    41   25   26 ar
    42   25   41 1
    43   26   42 1
@<TRIPOS>MOLECULE
ZINC02394307
   40    43     0     0     0
SMALL
USER_CHARGES

@<TRIPOS>ATOM
      1 C1         -0.1376    1.0781   -0.0456 C.3       1 <0>        -0.0631
      2 O1         -0.8881    1.5441    1.0777 O.3       1 <0>        -0.2071
      3 C2         -0.9380    2.8876    1.2715 C.ar      1 <0>         0.1394
      4 C3         -0.2726    3.7384    0.3902 C.ar      1 <0>        -0.2429
      5 C4         -0.3134    5.0898    0.5708 C.ar      1 <0>        -0.0256
      6 C5         -1.0269    5.6291    1.6466 C.ar      1 <0>        -0.1560
      7 C6         -1.7018    4.7760    2.5412 C.ar      1 <0>         0.0916
      8 C7         -1.6530    3.4003    2.3377 C.ar      1 <0>        -0.2007
      9 N1         -2.3148    5.5574    3.4950 N.pl3     1 <0>        -0.1593
     10 H1         -2.8479    5.2210    4.2322 H         1 <0>         0.2623
     11 C8         -2.0569    6.8968    3.2449 C.2       1 <0>        -0.1556
     12 C9         -1.2656    6.9933    2.1139 C.2       1 <0>         0.0497
     13 N2         -0.8728    8.2404    1.6624 N.am      1 <0>        -0.2835
     14 H2         -0.3007    8.3183    0.8460 H         1 <0>         0.2740
     15 C10        -1.2596    9.3498    2.3205 C.2       1 <0>         0.4088
     16 O2         -0.9065   10.4392    1.9109 O.2       1 <0>        -0.3503
     17 N3         -2.0279    9.2774    3.4212 N.am      1 <0>        -0.2515
     18 C11        -2.4400    8.0894    3.9061 C.2       1 <0>         0.3641
     19 O3         -3.1361    8.0417    4.9049 O.2       1 <0>        -0.3588
     20 N4         -2.4069   10.4570    4.0753 N.2       1 <0>         0.0157
     21 C12        -1.9662   10.7068    5.2706 C.2       1 <0>        -0.0215
     22 C13        -2.4531   11.8889    6.0031 C.ar      1 <0>        -0.0950
     23 C14        -1.9858   12.1583    7.2918 C.ar      1 <0>        -0.0819
     24 C15        -2.4419   13.2688    7.9700 C.ar      1 <0>        -0.1495
     25 C16        -3.3698   14.1128    7.3835 C.ar      1 <0>        -0.0916
     26 C17        -3.8435   13.8548    6.1112 C.ar      1 <0>        -0.1669
     27 C18        -3.3920   12.7463    5.4133 C.ar      1 <0>         0.1266
     28 O4         -3.8568   12.4919    4.1631 O.3       1 <0>        -0.2674
     29 H3         -0.1793   -0.0104   -0.0841 H         1 <0>         0.1118
     30 H4          0.8996    1.3987    0.0522 H         1 <0>         0.0703
     31 H5         -0.5606    1.4907   -0.9615 H         1 <0>         0.0708
     32 H6          0.2792    3.3248   -0.4409 H         1 <0>         0.1405
     33 H7          0.2048    5.7427   -0.1158 H         1 <0>         0.1318
     34 H8         -2.1691    2.7345    3.0135 H         1 <0>         0.1497
     35 H9         -1.2427   10.0482    5.7280 H         1 <0>         0.1297
     36 H10        -1.2654   11.5001    7.7545 H         1 <0>         0.1357
     37 H11        -2.0775   13.4786    8.9647 H         1 <0>         0.1353
     38 H12        -3.7252   14.9780    7.9234 H         1 <0>         0.1345
     39 H13        -4.5669   14.5180    5.6604 H         1 <0>         0.1455
     40 H14        -4.6473   11.9354    4.1430 H         1 <0>         0.2405
@<TRIPOS>BOND
     1    1    2 1
     2    1   29 1
     3    1   30 1
     4    1   31 1
     5    2    3 1
     6    3    8 ar
     7    3    4 ar
     8    4    5 ar
     9    4   32 1
    10    5    6 ar
    11    5   33 1
    12    6   12 1
    13    6    7 ar
    14    7    8 ar
    15    7    9 1
    16    8   34 1
    17    9   10 1
    18    9   11 1
    19   11   18 1
    20   11   12 2
    21   12   13 1
    22   13   14 1
    23   13   15 am
    24   15   16 2
    25   15   17 am
    26   17   18 am
    27   17   20 1
    28   18   19 2
    29   20   21 2
    30   21   22 1
    31   21   35 1
    32   22   27 ar
    33   22   23 ar
    34   23   24 ar
    35   23   36 1
    36   24   25 ar
    37   24   37 1
    38   25   26 ar
    39   25   38 1
    40   26   27 ar
    41   26   39 1
    42   27   28 1
    43   28   40 1
@<TRIPOS>MOLECULE
ZINC02394556
   44    47     0     0     0
SMALL
USER_CHARGES

@<TRIPOS>ATOM
      1 C1         -2.8431   -3.3690    1.2066 C.3       1 <0>        -0.0666
      2 O1         -3.9331   -2.5693    1.6696 O.3       1 <0>        -0.2110
      3 C2         -3.8044   -1.2201    1.5489 C.ar      1 <0>         0.0548
      4 C3         -2.6201   -0.6764    1.0851 C.ar      1 <0>        -0.1563
      5 C4         -2.4946    0.7044    0.9643 C.ar      1 <0>        -0.0473
      6 C5         -3.5590    1.5476    1.3091 C.ar      1 <0>         0.0342
      7 C6         -4.7441    0.9888    1.7736 C.ar      1 <0>        -0.2232
      8 C7         -4.8652   -0.3848    1.8928 C.ar      1 <0>         0.0714
      9 O2         -6.0279   -0.9230    2.3485 O.3       1 <0>        -0.1978
     10 C8         -7.0768   -0.0123    2.6839 C.3       1 <0>        -0.0613
     11 N1         -3.1809    2.8706    1.0993 N.am      1 <0>        -0.3075
     12 C9         -1.9209    2.9528    0.6393 C.2       1 <0>         0.3601
     13 O3         -1.3223    3.9788    0.3710 O.2       1 <0>        -0.3782
     14 C10        -1.3932    1.5853    0.5131 C.2       1 <0>        -0.2462
     15 C11        -0.1441    1.2070    0.0760 C.2       1 <0>         0.1293
     16 C12         0.1473   -0.2049   -0.1723 C.ar      1 <0>        -0.3002
     17 C13        -0.7748   -0.9972   -0.8885 C.ar      1 <0>         0.0408
     18 C14        -0.5259   -2.3066   -1.1301 C.ar      1 <0>        -0.2725
     19 C15         0.6651   -2.9012   -0.6666 C.ar      1 <0>         0.0553
     20 C16         0.9367   -4.2570   -0.9094 C.ar      1 <0>        -0.1668
     21 C17         2.0956   -4.8069   -0.4503 C.ar      1 <0>        -0.1073
     22 C18         3.0200   -4.0434    0.2584 C.ar      1 <0>        -0.1939
     23 C19         2.7901   -2.7252    0.5127 C.ar      1 <0>        -0.0518
     24 C20         1.6056   -2.1248    0.0548 C.ar      1 <0>        -0.1239
     25 C21         1.3409   -0.7621    0.2960 C.ar      1 <0>         0.2737
     26 N2         -1.5094   -3.1169   -1.8840 N.pl3     1 <0>         0.5667
     27 O4         -2.1074   -2.6278   -2.8257 O.2       1 <0>        -0.3963
     28 O5         -1.7205   -4.2726   -1.5625 O.3       1 <0>        -0.4121
     29 H1         -2.6284   -3.1234    0.1666 H         1 <0>         0.0813
     30 H2         -1.9618   -3.1701    1.8164 H         1 <0>         0.0706
     31 H3         -3.1078   -4.4236    1.2837 H         1 <0>         0.1041
     32 H4         -1.7958   -1.3210    0.8179 H         1 <0>         0.1748
     33 H5         -5.5721    1.6280    2.0423 H         1 <0>         0.1261
     34 H6         -7.9453   -0.5709    3.0327 H         1 <0>         0.0955
     35 H7         -6.7364    0.6596    3.4719 H         1 <0>         0.0600
     36 H8         -7.3486    0.5692    1.8030 H         1 <0>         0.0611
     37 H9         -3.7524    3.6360    1.2681 H         1 <0>         0.2293
     38 H10         0.6195    1.9529   -0.0879 H         1 <0>         0.1527
     39 H11        -1.6915   -0.5539   -1.2484 H         1 <0>         0.1432
     40 H12         0.2295   -4.8618   -1.4575 H         1 <0>         0.1515
     41 H13         2.3004   -5.8505   -0.6386 H         1 <0>         0.1100
     42 H14         3.9314   -4.5029    0.6113 H         1 <0>         0.1105
     43 H15         3.5148   -2.1445    1.0640 H         1 <0>         0.1487
     44 O6          2.2302   -0.0020    0.9786 O.3       1 <0>        -0.4857
@<TRIPOS>BOND
     1    1    2 1
     2    1   29 1
     3    1   30 1
     4    1   31 1
     5    2    3 1
     6    3    8 ar
     7    3    4 ar
     8    4    5 ar
     9    4   32 1
    10    5   14 1
    11    5    6 ar
    12    6    7 ar
    13    6   11 1
    14    7    8 ar
    15    7   33 1
    16    8    9 1
    17    9   10 1
    18   10   34 1
    19   10   35 1
    20   10   36 1
    21   11   12 am
    22   11   37 1
    23   12   13 2
    24   12   14 1
    25   14   15 2
    26   15   16 1
    27   15   38 1
    28   16   25 ar
    29   16   17 ar
    30   17   18 ar
    31   17   39 1
    32   18   19 ar
    33   18   26 1
    34   19   24 ar
    35   19   20 ar
    36   20   21 ar
    37   20   40 1
    38   21   22 ar
    39   21   41 1
    40   22   23 ar
    41   22   42 1
    42   23   24 ar
    43   23   43 1
    44   24   25 ar
    45   25   44 1
    46   26   27 2
    47   26   28 1
@<TRIPOS>MOLECULE
ZINC02394634
   45    49     0     0     0
SMALL
USER_CHARGES

@<TRIPOS>ATOM
      1 C1         -0.4259    1.7996   -2.1180 C.ar      1 <0>        -0.1759
      2 C2         -0.7306    1.1169   -0.9502 C.ar      1 <0>        -0.0608
      3 C3          0.1003    1.1973    0.1494 C.ar      1 <0>        -0.1903
      4 C4          1.2515    1.9676    0.0873 C.ar      1 <0>         0.1078
      5 C5          1.5617    2.6600   -1.0963 C.ar      1 <0>        -0.1912
      6 C6          0.7145    2.5707   -2.1987 C.ar      1 <0>        -0.0253
      7 C7          2.7921    3.4696   -1.1283 C.2       1 <0>         0.3447
      8 O1          3.1060    4.0884   -2.1274 O.2       1 <0>        -0.3356
      9 N1          3.5616    3.5088   -0.0189 N.am      1 <0>        -0.2599
     10 C8          3.2231    2.8294    1.0880 C.2       1 <0>         0.4099
     11 O2          3.9518    2.8984    2.0589 O.2       1 <0>        -0.3495
     12 N2          2.1127    2.0763    1.1693 N.am      1 <0>        -0.3092
     13 H1          1.9054    1.5897    2.0180 H         1 <0>         0.2745
     14 N3          4.7362    4.2723   -0.0241 N.2       1 <0>         0.0072
     15 C9          4.6692    5.5672   -0.1155 C.2       1 <0>        -0.0220
     16 C10         5.9009    6.3601   -0.2352 C.ar      1 <0>        -0.0559
     17 C11         7.1494    5.7292   -0.2458 C.ar      1 <0>         0.1141
     18 C12         8.3073    6.4854   -0.3649 C.ar      1 <0>        -0.1516
     19 C13         8.2459    7.8601   -0.4619 C.ar      1 <0>        -0.0773
     20 C14         7.0195    8.5132   -0.4481 C.ar      1 <0>         0.0044
     21 C15         5.8367    7.7638   -0.3348 C.ar      1 <0>        -0.0598
     22 C16         4.7563    8.7420   -0.3534 C.2       1 <0>        -0.1766
     23 C17         5.3323    9.9528   -0.4706 C.2       1 <0>         0.0105
     24 O3          6.6661    9.8147   -0.5253 O.3       1 <0>        -0.0731
     25 C18         4.5522   11.2464   -0.5285 C.3       1 <0>        -0.0818
     26 C19         3.0920   10.9198   -0.8606 C.3       1 <0>        -0.1577
     27 C20         2.5847    9.8260    0.0834 C.3       1 <0>        -0.1620
     28 C21         3.2733    8.4993   -0.2613 C.3       1 <0>        -0.0904
     29 O4          7.2283    4.3768   -0.1453 O.3       1 <0>        -0.2637
     30 H2         -1.0862    1.7274   -2.9696 H         1 <0>         0.1403
     31 H3         -1.6269    0.5165   -0.9003 H         1 <0>         0.1375
     32 H4         -0.1478    0.6658    1.0562 H         1 <0>         0.1395
     33 H5          0.9490    3.1016   -3.1095 H         1 <0>         0.1593
     34 H6          3.7085    6.0604   -0.1034 H         1 <0>         0.1331
     35 H7          9.2680    5.9920   -0.3769 H         1 <0>         0.1517
     36 H8          9.1574    8.4327   -0.5494 H         1 <0>         0.1433
     37 H9          4.6045   11.7491    0.4372 H         1 <0>         0.1048
     38 H10         4.9685   11.8908   -1.3029 H         1 <0>         0.1027
     39 H11         2.4828   11.8155   -0.7392 H         1 <0>         0.0901
     40 H12         3.0232   10.5709   -1.8909 H         1 <0>         0.0932
     41 H13         2.8150   10.0986    1.1134 H         1 <0>         0.0894
     42 H14         1.5062    9.7174   -0.0317 H         1 <0>         0.0863
     43 H15         2.9022    8.1315   -1.2180 H         1 <0>         0.0963
     44 H16         3.0697    7.7670    0.5200 H         1 <0>         0.0903
     45 H17         7.2094    3.9174   -0.9960 H         1 <0>         0.2387
@<TRIPOS>BOND
     1    1    6 ar
     2    1    2 ar
     3    1   30 1
     4    2    3 ar
     5    2   31 1
     6    3    4 ar
     7    3   32 1
     8    4   12 1
     9    4    5 ar
    10    5    6 ar
    11    5    7 1
    12    6   33 1
    13    7    8 2
    14    7    9 am
    15    9   10 am
    16    9   14 1
    17   10   11 2
    18   10   12 am
    19   12   13 1
    20   14   15 2
    21   15   16 1
    22   15   34 1
    23   16   21 ar
    24   16   17 ar
    25   17   18 ar
    26   17   29 1
    27   18   19 ar
    28   18   35 1
    29   19   20 ar
    30   19   36 1
    31   20   24 1
    32   20   21 ar
    33   21   22 1
    34   22   28 1
    35   22   23 2
    36   23   24 1
    37   23   25 1
    38   25   26 1
    39   25   37 1
    40   25   38 1
    41   26   27 1
    42   26   39 1
    43   26   40 1
    44   27   28 1
    45   27   41 1
    46   27   42 1
    47   28   43 1
    48   28   44 1
    49   29   45 1
@<TRIPOS>MOLECULE
ZINC02394847
   49    51     0     0     0
SMALL
USER_CHARGES

@<TRIPOS>ATOM
      1 C1          9.0500   -5.6184    0.5109 C.ar      1 <0>        -0.0968
      2 C2          7.7786   -6.1643    0.5206 C.ar      1 <0>        -0.1350
      3 C3          6.6722   -5.3450    0.4329 C.ar      1 <0>        -0.0583
      4 C4          6.8374   -3.9626    0.3337 C.ar      1 <0>        -0.1278
      5 C5          8.1228   -3.4189    0.3186 C.ar      1 <0>        -0.1057
      6 C6          9.2207   -4.2489    0.4128 C.ar      1 <0>        -0.1331
      7 C7          5.6561   -3.0786    0.2388 C.2       1 <0>         0.3515
      8 O1          4.5380   -3.5554    0.2470 O.2       1 <0>        -0.3408
      9 N1          5.8190   -1.7442    0.1431 N.am      1 <0>        -0.2998
     10 N2          4.6997   -0.9065    0.0532 N.pl3     1 <0>        -0.1641
     11 C8          4.8626    0.4282   -0.0425 C.2       1 <0>         0.1613
     12 C9          3.7664    1.2456   -0.2468 C.2       1 <0>        -0.4287
     13 C10         3.8788    2.7136   -0.1814 C.2       1 <0>         0.3786
     14 O2          4.9454    3.2486    0.0563 O.2       1 <0>        -0.3639
     15 N3          2.7671    3.4481   -0.3917 N.am      1 <0>        -0.3400
     16 C11         1.5868    2.8718   -0.6593 C.2       1 <0>         0.4107
     17 O3          0.6243    3.5905   -0.8444 O.2       1 <0>        -0.3778
     18 N4          1.4107    1.5448   -0.7283 N.am      1 <0>        -0.2980
     19 C12         2.4345    0.6869   -0.5399 C.2       1 <0>         0.3779
     20 O4          2.2629   -0.5155   -0.6096 O.2       1 <0>        -0.3790
     21 C13         0.0769    1.0142   -1.0210 C.3       1 <0>         0.0445
     22 C14        -0.8904    1.4648    0.0398 C.3       1 <0>        -0.1711
     23 C15        -1.9781    0.4100    0.3295 C.3       1 <0>        -0.1551
     24 C16        -2.5175   -0.2628   -0.9473 C.3       1 <0>        -0.1627
     25 C17        -2.7325    0.7179   -2.0680 C.3       1 <0>        -0.1604
     26 C18        -1.4701    0.7339   -2.9541 C.3       1 <0>        -0.1569
     27 C19        -0.4042    1.5463   -2.3865 C.3       1 <0>        -0.1720
     28 H1          9.9129   -6.2642    0.5798 H         1 <0>         0.1370
     29 H2          7.6522   -7.2341    0.5974 H         1 <0>         0.1416
     30 H3          5.6803   -5.7723    0.4413 H         1 <0>         0.1608
     31 H4          8.2575   -2.3504    0.2376 H         1 <0>         0.1206
     32 H5         10.2157   -3.8291    0.4057 H         1 <0>         0.1374
     33 H6          6.7113   -1.3637    0.1365 H         1 <0>         0.2540
     34 H7          3.8074   -1.2869    0.0598 H         1 <0>         0.3223
     35 H8          5.8495    0.8591    0.0404 H         1 <0>         0.1739
     36 H9          2.8239    4.4157   -0.3522 H         1 <0>         0.2694
     37 H10         0.1133   -0.0749   -1.0446 H         1 <0>         0.1397
     38 H11        -0.3377    1.6704    0.9566 H         1 <0>         0.0866
     39 H12        -1.3743    2.3836   -0.2915 H         1 <0>         0.1080
     40 H13        -2.8060    0.8919    0.8495 H         1 <0>         0.0816
     41 H14        -1.5544   -0.3564    0.9785 H         1 <0>         0.0798
     42 H15        -3.4659   -0.7480   -0.7165 H         1 <0>         0.0781
     43 H16        -1.8046   -1.0201   -1.2733 H         1 <0>         0.0829
     44 H17        -2.9036    1.7126   -1.6564 H         1 <0>         0.0902
     45 H18        -3.5939    0.4150   -2.6634 H         1 <0>         0.0799
     46 H19        -1.7323    1.1308   -3.9349 H         1 <0>         0.0818
     47 H20        -1.1098   -0.2878   -3.0736 H         1 <0>         0.0804
     48 H21        -0.7670    2.5663   -2.2599 H         1 <0>         0.1134
     49 H22         0.4382    1.5565   -3.0781 H         1 <0>         0.0830
@<TRIPOS>BOND
     1    1    6 ar
     2    1    2 ar
     3    1   28 1
     4    2    3 ar
     5    2   29 1
     6    3    4 ar
     7    3   30 1
     8    4    5 ar
     9    4    7 1
    10    5    6 ar
    11    5   31 1
    12    6   32 1
    13    7    8 2
    14    7    9 am
    15    9   10 1
    16    9   33 1
    17   10   11 1
    18   10   34 1
    19   11   12 2
    20   11   35 1
    21   12   19 1
    22   12   13 1
    23   13   14 2
    24   13   15 am
    25   15   16 am
    26   15   36 1
    27   16   17 2
    28   16   18 am
    29   18   19 am
    30   18   21 1
    31   19   20 2
    32   21   27 1
    33   21   22 1
    34   21   37 1
    35   22   23 1
    36   22   38 1
    37   22   39 1
    38   23   24 1
    39   23   40 1
    40   23   41 1
    41   24   25 1
    42   24   42 1
    43   24   43 1
    44   25   26 1
    45   25   44 1
    46   25   45 1
    47   26   27 1
    48   26   46 1
    49   26   47 1
    50   27   48 1
    51   27   49 1
@<TRIPOS>MOLECULE
ZINC02398872
   42    44     0     0     0
SMALL
USER_CHARGES

@<TRIPOS>ATOM
      1 C1          1.1505    3.5924    0.0099 C.3       1 <0>        -0.1830
      2 C2          1.1709    2.0855    0.0021 C.ar      1 <0>        -0.0204
      3 C3         -0.0167    1.3781    0.0096 C.ar      1 <0>        -0.1586
      4 C4          0.0021   -0.0041    0.0020 C.ar      1 <0>        -0.0278
      5 C5          1.2084   -0.6789   -0.0132 C.ar      1 <0>        -0.7599
      6 C6          2.3961    0.0285   -0.0212 C.ar      1 <0>         0.0018
      7 C7          2.3773    1.4107   -0.0145 C.ar      1 <0>        -0.1545
      8 S1          1.2323   -2.4407   -0.0217 S.o2      1 <0>         2.7825
      9 O1          2.4885   -2.8324    0.5148 O.2       1 <0>        -0.8915
     10 O2         -0.0018   -2.8663    0.5395 O.2       1 <0>        -0.9195
     11 N1          1.2232   -2.9228   -1.6059 N.pl3     1 <0>        -0.8112
     12 N2          2.2603   -2.5322   -2.4630 N.2       1 <0>         0.0514
     13 C8          2.2532   -2.9103   -3.7056 C.2       1 <0>        -0.1072
     14 C9          3.3427   -2.4999   -4.6060 C.2       1 <0>        -0.1239
     15 C10         3.3429   -2.8973   -5.9278 C.2       1 <0>        -0.0353
     16 C11         4.4051   -2.4862   -6.7713 C.ar      1 <0>        -0.1183
     17 C12         4.4298   -2.8754   -8.1189 C.ar      1 <0>        -0.0689
     18 C13         5.4565   -2.4744   -8.9238 C.ar      1 <0>        -0.1108
     19 C14         6.4803   -1.6830   -8.4204 C.ar      1 <0>        -0.0693
     20 C15         6.4781   -1.2885   -7.1002 C.ar      1 <0>        -0.1818
     21 C16         5.4414   -1.6836   -6.2590 C.ar      1 <0>         0.1012
     22 N3          5.4360   -1.2903   -4.9360 N.am      1 <0>        -0.2811
     23 H1          6.1829   -0.7247   -4.5865 H         1 <0>         0.2560
     24 C17         4.4387   -1.6579   -4.1098 C.2       1 <0>         0.3351
     25 O3          4.4484   -1.2959   -2.9470 O.2       1 <0>        -0.3297
     26 C18         5.4795   -2.8946  -10.3708 C.3       1 <0>        -0.1718
     27 H2          1.1552    3.9504    1.0394 H         1 <0>         0.0921
     28 H3          2.0306    3.9704   -0.5103 H         1 <0>         0.0856
     29 H4          0.2509    3.9462   -0.4937 H         1 <0>         0.0839
     30 H5         -0.9592    1.9054    0.0170 H         1 <0>         0.1331
     31 H6         -0.9258   -0.5567    0.0083 H         1 <0>         0.1438
     32 H7          3.3386   -0.4987   -0.0324 H         1 <0>         0.1659
     33 H8          3.3052    1.9634   -0.0205 H         1 <0>         0.1370
     34 H9          0.4998   -3.4757   -1.9405 H         1 <0>         0.2208
     35 H10         1.4478   -3.5259   -4.0780 H         1 <0>         0.1234
     36 H11         2.5441   -3.5130   -6.3143 H         1 <0>         0.1417
     37 H12         3.6376   -3.4909   -8.5188 H         1 <0>         0.1384
     38 H13         7.2861   -1.3741   -9.0697 H         1 <0>         0.1376
     39 H14         7.2796   -0.6735   -6.7184 H         1 <0>         0.1389
     40 H15         4.9566   -2.1517  -10.9732 H         1 <0>         0.0875
     41 H16         6.5124   -2.9752  -10.7094 H         1 <0>         0.0837
     42 H17         4.9860   -3.8607  -10.4765 H         1 <0>         0.0830
@<TRIPOS>BOND
     1    1    2 1
     2    1   27 1
     3    1   28 1
     4    1   29 1
     5    2    7 ar
     6    2    3 ar
     7    3    4 ar
     8    3   30 1
     9    4    5 ar
    10    4   31 1
    11    5    6 ar
    12    5    8 1
    13    6    7 ar
    14    6   32 1
    15    7   33 1
    16    8    9 2
    17    8   10 2
    18    8   11 1
    19   11   12 1
    20   11   34 1
    21   12   13 2
    22   13   14 1
    23   13   35 1
    24   14   24 1
    25   14   15 2
    26   15   16 1
    27   15   36 1
    28   16   21 ar
    29   16   17 ar
    30   17   18 ar
    31   17   37 1
    32   18   19 ar
    33   18   26 1
    34   19   20 ar
    35   19   38 1
    36   20   21 ar
    37   20   39 1
    38   21   22 1
    39   22   23 1
    40   22   24 am
    41   24   25 2
    42   26   40 1
    43   26   41 1
    44   26   42 1
@<TRIPOS>MOLECULE
ZINC02398872
   42    44     0     0     0
SMALL
USER_CHARGES

@<TRIPOS>ATOM
      1 C1          1.1394    3.5784    0.0141 C.3       1 <0>        -0.1849
      2 C2          1.1648    2.0716    0.0063 C.ar      1 <0>        -0.0150
      3 C3         -0.0205    1.3603    0.0150 C.ar      1 <0>        -0.1530
      4 C4          0.0028   -0.0219    0.0074 C.ar      1 <0>        -0.0249
      5 C5          1.2113   -0.6927   -0.0090 C.ar      1 <0>        -0.7665
      6 C6          2.3967    0.0186   -0.0182 C.ar      1 <0>        -0.0173
      7 C7          2.3734    1.4008   -0.0115 C.ar      1 <0>        -0.1486
      8 S1          1.2410   -2.4544   -0.0175 S.o2      1 <0>         2.7733
      9 O1          2.4991   -2.8419    0.5178 O.2       1 <0>        -0.8919
     10 O2          0.0089   -2.8840    0.5450 O.2       1 <0>        -0.9055
     11 N1          1.2319   -2.9366   -1.6016 N.pl3     1 <0>        -0.7963
     12 N2          2.2669   -2.5426   -2.4598 N.2       1 <0>        -0.0846
     13 C8          2.2598   -2.9207   -3.7024 C.2       1 <0>        -0.0422
     14 C9          3.3470   -2.5068   -4.6039 C.ar      1 <0>        -0.2493
     15 C10         3.3502   -2.9090   -5.9242 C.ar      1 <0>         0.0105
     16 C11         4.4132   -2.4991   -6.7673 C.ar      1 <0>        -0.1489
     17 C12         4.4410   -2.8932   -8.1135 C.ar      1 <0>        -0.0865
     18 C13         5.4682   -2.4930   -8.9181 C.ar      1 <0>        -0.1030
     19 C14         6.4900   -1.6985   -8.4157 C.ar      1 <0>        -0.0883
     20 C15         6.4872   -1.3030   -7.0957 C.ar      1 <0>        -0.1240
     21 C16         5.4475   -1.6934   -6.2560 C.ar      1 <0>         0.0932
     22 N3          5.4365   -1.2911   -4.9358 N.ar      1 <0>        -0.2442
     23 H1          3.6391   -1.6525   -2.4801 H         1 <0>         0.3041
     24 C17         4.4392   -1.6587   -4.1096 C.ar      1 <0>         0.2432
     25 O3          4.4462   -1.2925   -2.9481 O.3       1 <0>        -0.1994
     26 C18         5.4942   -2.9180  -10.3637 C.3       1 <0>        -0.1721
     27 H2          1.1440    3.9364    1.0436 H         1 <0>         0.0955
     28 H3          2.0177    3.9593   -0.5070 H         1 <0>         0.0894
     29 H4          0.2381    3.9292   -0.4886 H         1 <0>         0.0866
     30 H5         -0.9647    1.8845    0.0233 H         1 <0>         0.1376
     31 H6         -0.9232   -0.5775    0.0147 H         1 <0>         0.1467
     32 H7          3.3409   -0.5055   -0.0303 H         1 <0>         0.1552
     33 H8          3.2994    1.9565   -0.0184 H         1 <0>         0.1425
     34 H9          0.5100   -3.4919   -1.9355 H         1 <0>         0.2339
     35 H10         1.4560   -3.5390   -4.0739 H         1 <0>         0.1329
     36 H11         2.5533   -3.5277   -6.3098 H         1 <0>         0.1361
     37 H12         3.6505   -3.5114   -8.5125 H         1 <0>         0.1296
     38 H13         7.2964   -1.3906   -9.0647 H         1 <0>         0.1349
     39 H14         7.2888   -0.6882   -6.7138 H         1 <0>         0.1529
     40 H15         4.9712   -2.1778  -10.9694 H         1 <0>         0.0855
     41 H16         6.5277   -2.9982  -10.7003 H         1 <0>         0.0827
     42 H17         5.0022   -3.8851  -10.4670 H         1 <0>         0.0802
@<TRIPOS>BOND
     1    1    2 1
     2    1   27 1
     3    1   28 1
     4    1   29 1
     5    2    7 ar
     6    2    3 ar
     7    3    4 ar
     8    3   30 1
     9    4    5 ar
    10    4   31 1
    11    5    6 ar
    12    5    8 1
    13    6    7 ar
    14    6   32 1
    15    7   33 1
    16    8    9 2
    17    8   10 2
    18    8   11 1
    19   11   12 1
    20   11   34 1
    21   12   13 2
    22   13   14 1
    23   13   35 1
    24   14   24 ar
    25   14   15 ar
    26   15   36 1
    27   15   16 ar
    28   16   17 ar
    29   16   21 ar
    30   17   18 ar
    31   17   37 1
    32   18   19 ar
    33   18   26 1
    34   19   20 ar
    35   19   38 1
    36   20   21 ar
    37   20   39 1
    38   21   22 ar
    39   22   24 ar
    40   23   25 1
    41   24   25 1
    42   26   40 1
    43   26   41 1
    44   26   42 1
@<TRIPOS>MOLECULE
ZINC02404828
   46    49     0     0     0
SMALL
USER_CHARGES

@<TRIPOS>ATOM
      1 C1         -7.0315    3.4766    8.1685 C.ar      1 <0>        -0.1297
      2 C2         -6.4637    2.6008    7.2621 C.ar      1 <0>        -0.1257
      3 C3         -5.4002    3.0096    6.4793 C.ar      1 <0>        -0.1292
      4 C4         -4.9051    4.2944    6.6022 C.ar      1 <0>        -0.0759
      5 C5         -5.4698    5.1686    7.5120 C.ar      1 <0>        -0.1247
      6 C6         -6.5361    4.7612    8.2918 C.ar      1 <0>        -0.1237
      7 C7         -3.7458    4.7400    5.7487 C.3       1 <0>        -0.1195
      8 C8         -4.2740    5.3426    4.4453 C.3       1 <0>        -0.1012
      9 C9         -3.1055    5.9076    3.6345 C.3       1 <0>        -0.1753
     10 C10        -3.6417    6.5404    2.3465 C.3       1 <0>        -0.0001
     11 N1         -4.4473    5.5428    1.6293 N.pl3     1 <0>        -0.8364
     12 C11        -5.5444    4.8751    2.3431 C.3       1 <0>        -0.0010
     13 C12        -4.9833    4.2569    3.6327 C.3       1 <0>        -0.1779
     14 S1         -4.1294    5.1828    0.0445 S.o2      1 <0>         2.7644
     15 O1         -3.4642    6.3128   -0.5032 O.2       1 <0>        -0.9093
     16 O2         -5.3346    4.6681   -0.5048 O.2       1 <0>        -0.9104
     17 C13        -2.9659    3.8596    0.0341 C.ar      1 <0>        -0.7579
     18 C14        -3.4126    2.5496    0.0293 C.ar      1 <0>        -0.0172
     19 C15        -2.5066    1.5069    0.0202 C.ar      1 <0>        -0.1466
     20 C16        -1.1468    1.7752    0.0165 C.ar      1 <0>         0.0270
     21 C17        -0.6956    3.0948    0.0253 C.ar      1 <0>        -0.0132
     22 C18        -1.6122    4.1345    0.0397 C.ar      1 <0>         0.0071
     23 O3          0.6594    3.0571    0.0122 O.3       1 <0>        -0.1247
     24 C19         1.0648    1.7776    0.0014 C.2       1 <0>         0.3929
     25 O4          2.2232    1.4081   -0.0122 O.2       1 <0>        -0.3130
     26 N2         -0.0111    0.9658    0.0074 N.am      1 <0>        -0.3185
     27 H1          0.0021   -0.0041    0.0020 H         1 <0>         0.2778
     28 H2         -7.8623    3.1573    8.7802 H         1 <0>         0.1298
     29 H3         -6.8507    1.5972    7.1659 H         1 <0>         0.1292
     30 H4         -4.9564    2.3253    5.7714 H         1 <0>         0.1283
     31 H5         -5.0802    6.1710    7.6111 H         1 <0>         0.1301
     32 H6         -6.9799    5.4456    8.9997 H         1 <0>         0.1303
     33 H7         -3.1112    3.8833    5.5219 H         1 <0>         0.0900
     34 H8         -3.1656    5.4897    6.2867 H         1 <0>         0.0912
     35 H9         -4.9777    6.1429    4.6743 H         1 <0>         0.0988
     36 H10        -2.4139    5.1032    3.3840 H         1 <0>         0.0870
     37 H11        -2.5865    6.6642    4.2229 H         1 <0>         0.0914
     38 H12        -2.8076    6.8557    1.7196 H         1 <0>         0.1071
     39 H13        -4.2620    7.4020    2.5935 H         1 <0>         0.0929
     40 H14        -6.3167    5.6037    2.5897 H         1 <0>         0.0943
     41 H15        -5.9661    4.0913    1.7139 H         1 <0>         0.1053
     42 H16        -4.2740    3.4681    3.3823 H         1 <0>         0.0834
     43 H17        -5.8009    3.8387    4.2199 H         1 <0>         0.1018
     44 H18        -4.4724    2.3421    0.0322 H         1 <0>         0.1594
     45 H19        -2.8570    0.4853    0.0157 H         1 <0>         0.1448
     46 H20        -1.2685    5.1584    0.0419 H         1 <0>         0.1669
@<TRIPOS>BOND
     1    1    6 ar
     2    1    2 ar
     3    1   28 1
     4    2    3 ar
     5    2   29 1
     6    3    4 ar
     7    3   30 1
     8    4    5 ar
     9    4    7 1
    10    5    6 ar
    11    5   31 1
    12    6   32 1
    13    7    8 1
    14    7   33 1
    15    7   34 1
    16    8   13 1
    17    8    9 1
    18    8   35 1
    19    9   10 1
    20    9   36 1
    21    9   37 1
    22   10   11 1
    23   10   38 1
    24   10   39 1
    25   11   12 1
    26   11   14 1
    27   12   13 1
    28   12   40 1
    29   12   41 1
    30   13   42 1
    31   13   43 1
    32   14   15 2
    33   14   16 2
    34   14   17 1
    35   17   22 ar
    36   17   18 ar
    37   18   19 ar
    38   18   44 1
    39   19   20 ar
    40   19   45 1
    41   20   26 1
    42   20   21 ar
    43   21   22 ar
    44   21   23 1
    45   22   46 1
    46   23   24 1
    47   24   25 2
    48   24   26 am
    49   26   27 1
@<TRIPOS>MOLECULE
ZINC02406133
   45    48     0     0     0
SMALL
USER_CHARGES

@<TRIPOS>ATOM
      1 C1         -1.1500   -3.2464   -0.3417 C.3       1 <0>        -0.0580
      2 O1         -0.2064   -2.1747   -0.2860 O.3       1 <0>        -0.3028
      3 C2         -0.8027   -0.8796   -0.1897 C.3       1 <0>         0.0404
      4 C3          0.2787    0.1687   -0.1379 C.2       1 <0>         0.0059
      5 C4          0.0929    1.4941   -0.0465 C.2       1 <0>        -0.2665
      6 C5          1.3613    2.1146   -0.0242 C.2       1 <0>         0.0908
      7 N1          2.2666    1.1829   -0.1019 N.2       1 <0>        -0.0726
      8 N2          1.6124   -0.0570   -0.1747 N.pl3     1 <0>        -0.1712
      9 H1          2.0549   -0.9512   -0.2420 H         1 <0>         0.3016
     10 O2          1.5024    3.4643    0.0669 O.3       1 <0>        -0.1012
     11 C6          0.4122    4.1809    0.4053 C.2       1 <0>         0.2904
     12 C7         -0.8486    3.7003    0.4092 C.2       1 <0>        -0.2697
     13 C8         -1.1897    2.2833    0.0201 C.3       1 <0>         0.1099
     14 H2         -1.8521    1.8464    0.7675 H         1 <0>         0.1046
     15 C9         -1.8644    2.2721   -1.3274 C.ar      1 <0>        -0.1121
     16 C10        -3.1784    1.7928   -1.4554 C.ar      1 <0>         0.0059
     17 C11        -3.8921    1.3157   -0.3423 C.ar      1 <0>        -0.1346
     18 C12        -5.1642    0.8595   -0.5030 C.ar      1 <0>        -0.1133
     19 C13        -5.7723    0.8567   -1.7571 C.ar      1 <0>        -0.1406
     20 C14        -5.1120    1.3110   -2.8572 C.ar      1 <0>        -0.1017
     21 C15        -3.7972    1.7903   -2.7307 C.ar      1 <0>        -0.0683
     22 C16        -3.0852    2.2675   -3.8452 C.ar      1 <0>        -0.0792
     23 C17        -1.8143    2.7250   -3.6882 C.ar      1 <0>        -0.2010
     24 C18        -1.2036    2.7332   -2.4301 C.ar      1 <0>         0.1151
     25 O3          0.0658    3.2015   -2.3040 O.3       1 <0>        -0.2034
     26 C19         0.7054    3.6704   -3.4928 C.3       1 <0>        -0.0657
     27 C20        -1.9122    4.5770    0.7978 C.1       1 <0>        -0.0593
     28 N3         -2.7559    5.2724    1.1060 N.1       1 <0>        -0.0884
     29 N4          0.5974    5.4909    0.7711 N.pl3     1 <0>        -0.3915
     30 H3         -0.6184   -4.1952   -0.4137 H         1 <0>         0.1035
     31 H4         -1.7609   -3.2399    0.5610 H         1 <0>         0.0598
     32 H5         -1.7905   -3.1215   -1.2148 H         1 <0>         0.0623
     33 H6         -1.4064   -0.8240    0.7161 H         1 <0>         0.0884
     34 H7         -1.4360   -0.7057   -1.0597 H         1 <0>         0.1002
     35 H8         -3.4334    1.3112    0.6354 H         1 <0>         0.1368
     36 H9         -5.7103    0.4935    0.3538 H         1 <0>         0.1278
     37 H10        -6.7828    0.4889   -1.8574 H         1 <0>         0.1278
     38 H11        -5.5961    1.3027   -3.8226 H         1 <0>         0.1306
     39 H12        -3.5460    2.2710   -4.8219 H         1 <0>         0.1333
     40 H13        -1.2702    3.0904   -4.5465 H         1 <0>         0.1354
     41 H14         1.7111    4.0152   -3.2524 H         1 <0>         0.1107
     42 H15         0.7632    2.8591   -4.2184 H         1 <0>         0.0673
     43 H16         0.1297    4.4945   -3.9142 H         1 <0>         0.0665
     44 H17         1.4900    5.8705    0.7796 H         1 <0>         0.2279
     45 H18        -0.1643    6.0370    1.0210 H         1 <0>         0.2580
@<TRIPOS>BOND
     1    1    2 1
     2    1   30 1
     3    1   31 1
     4    1   32 1
     5    2    3 1
     6    3    4 1
     7    3   33 1
     8    3   34 1
     9    4    8 1
    10    4    5 2
    11    5   13 1
    12    5    6 1
    13    6    7 2
    14    6   10 1
    15    7    8 1
    16    8    9 1
    17   10   11 1
    18   11   12 2
    19   11   29 1
    20   12   13 1
    21   12   27 1
    22   13   14 1
    23   13   15 1
    24   15   24 ar
    25   15   16 ar
    26   16   21 ar
    27   16   17 ar
    28   17   18 ar
    29   17   35 1
    30   18   19 ar
    31   18   36 1
    32   19   20 ar
    33   19   37 1
    34   20   21 ar
    35   20   38 1
    36   21   22 ar
    37   22   23 ar
    38   22   39 1
    39   23   24 ar
    40   23   40 1
    41   24   25 1
    42   25   26 1
    43   26   41 1
    44   26   42 1
    45   26   43 1
    46   27   28 3
    47   29   44 1
    48   29   45 1
@<TRIPOS>MOLECULE
ZINC02406134
   45    48     0     0     0
SMALL
USER_CHARGES

@<TRIPOS>ATOM
      1 C1          1.6854    0.3987   -5.2625 C.3       1 <0>        -0.0580
      2 O1          0.5611   -0.1046   -4.5381 O.3       1 <0>        -0.3028
      3 C2          0.6595    0.0632   -3.1223 C.3       1 <0>         0.0404
      4 C3         -0.5731   -0.4999   -2.4630 C.2       1 <0>         0.0059
      5 C4         -0.8286   -0.5179   -1.1461 C.2       1 <0>        -0.2665
      6 C5         -2.0851   -1.1323   -0.9512 C.2       1 <0>         0.0906
      7 N1         -2.5561   -1.4646   -2.1180 N.2       1 <0>        -0.0725
      8 N2         -1.6223   -1.0779   -3.0923 N.pl3     1 <0>        -0.1711
      9 H1         -1.7162   -1.2071   -4.0795 H         1 <0>         0.3017
     10 O2         -2.6208   -1.3012    0.2874 O.3       1 <0>        -0.1011
     11 C6         -1.8079   -1.1137    1.3460 C.2       1 <0>         0.2903
     12 C7         -0.5927   -0.5282    1.2846 C.2       1 <0>        -0.2695
     13 C8          0.0021   -0.0041    0.0020 C.3       1 <0>         0.1097
     14 H2          1.0282   -0.3575   -0.0991 H         1 <0>         0.1046
     15 C9         -0.0184    1.5028    0.0103 C.ar      1 <0>        -0.1120
     16 C10         1.1831    2.2259   -0.0699 C.ar      1 <0>         0.0057
     17 C11         2.4236    1.5707   -0.1593 C.ar      1 <0>        -0.1349
     18 C12         3.5680    2.3032   -0.2359 C.ar      1 <0>        -0.1134
     19 C13         3.5300    3.6964   -0.2277 C.ar      1 <0>        -0.1406
     20 C14         2.3474    4.3648   -0.1428 C.ar      1 <0>        -0.1016
     21 C15         1.1446    3.6427   -0.0612 C.ar      1 <0>        -0.0682
     22 C16        -0.0952    4.2998    0.0275 C.ar      1 <0>        -0.0793
     23 C17        -1.2407    3.5711    0.1038 C.ar      1 <0>        -0.2008
     24 C18        -1.2056    2.1730    0.0902 C.ar      1 <0>         0.1151
     25 O3         -2.3677    1.4724    0.1621 O.3       1 <0>        -0.2033
     26 C19        -3.5773    2.2288    0.2438 C.3       1 <0>        -0.0657
     27 C20         0.1664   -0.3994    2.4920 C.1       1 <0>        -0.0592
     28 N3          0.7686   -0.2971    3.4498 N.1       1 <0>        -0.0884
     29 N4         -2.2459   -1.5478    2.5724 N.pl3     1 <0>        -0.3914
     30 H3          1.5339    0.2335   -6.3292 H         1 <0>         0.1035
     31 H4          1.7921    1.4666   -5.0717 H         1 <0>         0.0623
     32 H5          2.5878   -0.1200   -4.9391 H         1 <0>         0.0598
     33 H6          0.7449    1.1241   -2.8872 H         1 <0>         0.1004
     34 H7          1.5406   -0.4626   -2.7545 H         1 <0>         0.0884
     35 H8          2.4683    0.4917   -0.1667 H         1 <0>         0.1367
     36 H9          4.5198    1.7974   -0.3045 H         1 <0>         0.1278
     37 H10         4.4528    4.2541   -0.2899 H         1 <0>         0.1278
     38 H11         2.3335    5.4447   -0.1382 H         1 <0>         0.1307
     39 H12        -0.1376    5.3789    0.0346 H         1 <0>         0.1333
     40 H13        -2.1913    4.0791    0.1714 H         1 <0>         0.1354
     41 H14        -3.5559    2.8529    1.1372 H         1 <0>         0.0664
     42 H15        -3.6707    2.8612   -0.6391 H         1 <0>         0.0673
     43 H16        -4.4279    1.5492    0.2957 H         1 <0>         0.1107
     44 H17        -3.1139   -1.9728    2.6548 H         1 <0>         0.2279
     45 H18        -1.6874   -1.4295    3.3566 H         1 <0>         0.2580
@<TRIPOS>BOND
     1    1    2 1
     2    1   30 1
     3    1   31 1
     4    1   32 1
     5    2    3 1
     6    3    4 1
     7    3   33 1
     8    3   34 1
     9    4    8 1
    10    4    5 2
    11    5   13 1
    12    5    6 1
    13    6    7 2
    14    6   10 1
    15    7    8 1
    16    8    9 1
    17   10   11 1
    18   11   12 2
    19   11   29 1
    20   12   13 1
    21   12   27 1
    22   13   14 1
    23   13   15 1
    24   15   24 ar
    25   15   16 ar
    26   16   21 ar
    27   16   17 ar
    28   17   18 ar
    29   17   35 1
    30   18   19 ar
    31   18   36 1
    32   19   20 ar
    33   19   37 1
    34   20   21 ar
    35   20   38 1
    36   21   22 ar
    37   22   23 ar
    38   22   39 1
    39   23   24 ar
    40   23   40 1
    41   24   25 1
    42   25   26 1
    43   26   41 1
    44   26   42 1
    45   26   43 1
    46   27   28 3
    47   29   44 1
    48   29   45 1
@<TRIPOS>MOLECULE
ZINC02412977
   40    43     0     0     0
SMALL
USER_CHARGES

@<TRIPOS>ATOM
      1 C1          1.8355   13.6356   -0.2997 C.3       1 <0>        -0.0626
      2 O1          1.0277   12.4590   -0.2286 O.3       1 <0>        -0.2170
      3 C2         -0.3165   12.6374   -0.1608 C.ar      1 <0>         0.1632
      4 C3         -0.8492   13.9126   -0.1621 C.ar      1 <0>        -0.2671
      5 C4         -2.2218   14.0974   -0.0921 C.ar      1 <0>        -0.0412
      6 C5         -3.0750   13.0178   -0.0215 C.ar      1 <0>        -0.1981
      7 C6         -2.5650   11.7223   -0.0182 C.ar      1 <0>         0.0899
      8 C7         -1.1724   11.5286   -0.0887 C.ar      1 <0>        -0.1463
      9 C8         -0.9516   10.0848   -0.0671 C.2       1 <0>         0.0667
     10 C9         -2.1986    9.4901    0.0138 C.2       1 <0>        -0.1625
     11 N1         -3.1646   10.4842    0.0427 N.pl3     1 <0>        -0.1584
     12 H1         -4.1208   10.3304    0.0978 H         1 <0>         0.2632
     13 C10        -2.2729    8.0760    0.0463 C.2       1 <0>         0.3653
     14 O2         -3.3544    7.5190    0.1128 O.2       1 <0>        -0.3556
     15 N2         -1.1370    7.3519    0.0074 N.am      1 <0>        -0.2493
     16 C11         0.0650    7.9488   -0.0716 C.2       1 <0>         0.4089
     17 O3          1.0691    7.2637   -0.1094 O.2       1 <0>        -0.3568
     18 N3          0.1796    9.2900   -0.1092 N.am      1 <0>        -0.2774
     19 H2          1.0842    9.7121   -0.1677 H         1 <0>         0.2848
     20 N4         -1.2102    5.9533    0.0442 N.2       1 <0>        -0.0033
     21 C12        -1.7508    5.3058   -0.9419 C.2       1 <0>        -0.0178
     22 C13        -1.9311    3.8446   -0.8540 C.ar      1 <0>        -0.0526
     23 C14        -1.5212    3.1549    0.2900 C.ar      1 <0>        -0.0838
     24 C15        -1.6976    1.7893    0.3710 C.ar      1 <0>        -0.1262
     25 C16        -2.2685    1.0975   -0.6817 C.ar      1 <0>        -0.1312
     26 C17        -2.6786    1.7737   -1.8228 C.ar      1 <0>         0.0613
     27 C18        -2.5123    3.1454   -1.9131 C.ar      1 <0>        -0.1226
     28 O4         -3.2440    1.0890   -2.8516 O.3       1 <0>        -0.2894
     29 H3          1.5704   14.2050   -1.1906 H         1 <0>         0.0732
     30 H4          1.6655   14.2472    0.5864 H         1 <0>         0.0738
     31 H5          2.8868   13.3521   -0.3493 H         1 <0>         0.1121
     32 H6         -0.1937   14.7691   -0.2175 H         1 <0>         0.1406
     33 H7         -2.6266   15.0986   -0.0938 H         1 <0>         0.1370
     34 H8         -4.1419   13.1770    0.0322 H         1 <0>         0.1362
     35 H9         -2.0687    5.8368   -1.8270 H         1 <0>         0.1314
     36 H10        -1.0713    3.6914    1.1123 H         1 <0>         0.1599
     37 H11        -1.3851    1.2579    1.2578 H         1 <0>         0.1392
     38 H12        -2.3998    0.0277   -0.6141 H         1 <0>         0.1417
     39 H13        -2.8310    3.6724   -2.8003 H         1 <0>         0.1430
     40 H14        -4.2060    1.0115   -2.7909 H         1 <0>         0.2280
@<TRIPOS>BOND
     1    1    2 1
     2    1   29 1
     3    1   30 1
     4    1   31 1
     5    2    3 1
     6    3    8 ar
     7    3    4 ar
     8    4    5 ar
     9    4   32 1
    10    5    6 ar
    11    5   33 1
    12    6    7 ar
    13    6   34 1
    14    7   11 1
    15    7    8 ar
    16    8    9 1
    17    9   18 1
    18    9   10 2
    19   10   11 1
    20   10   13 1
    21   11   12 1
    22   13   14 2
    23   13   15 am
    24   15   16 am
    25   15   20 1
    26   16   17 2
    27   16   18 am
    28   18   19 1
    29   20   21 2
    30   21   22 1
    31   21   35 1
    32   22   27 ar
    33   22   23 ar
    34   23   24 ar
    35   23   36 1
    36   24   25 ar
    37   24   37 1
    38   25   26 ar
    39   25   38 1
    40   26   27 ar
    41   26   28 1
    42   27   39 1
    43   28   40 1
@<TRIPOS>MOLECULE
ZINC02414821
   41    43     0     0     0
SMALL
USER_CHARGES

@<TRIPOS>ATOM
      1 C1         -1.9403   -0.1693    1.9008 C.3       1 <0>        -0.0679
      2 N1         -0.6115   -0.6707    1.5415 N.pl3     1 <0>        -0.1733
      3 C2         -0.3439   -2.0439    1.5933 C.ar      1 <0>         0.0387
      4 C3         -1.2992   -2.9195    2.0926 C.ar      1 <0>        -0.1546
      5 C4         -1.0364   -4.2744    2.1385 C.ar      1 <0>        -0.1363
      6 C5          0.1858   -4.7596    1.6965 C.ar      1 <0>         0.0553
      7 C6          1.1425   -3.8850    1.2025 C.ar      1 <0>        -0.1292
      8 C7          0.8792   -2.5305    1.1506 C.ar      1 <0>        -0.1369
      9 O1          0.4459   -6.0933    1.7472 O.3       1 <0>        -0.2907
     10 C8          0.3696    0.2045    1.1548 C.2       1 <0>         0.0942
     11 N2          1.6390   -0.0528    0.8811 N.2       1 <0>        -0.3746
     12 C9          2.4861    0.8846    0.5179 C.2       1 <0>         0.3250
     13 O2          3.6546    0.6347    0.2677 O.2       1 <0>        -0.2835
     14 C10         1.9447    2.2608    0.4285 C.2       1 <0>        -0.3269
     15 C11         2.5646    3.4184    0.0852 C.2       1 <0>         0.0129
     16 C12         1.8584    4.6982    0.2231 C.ar      1 <0>        -0.0503
     17 C13         0.7166    4.7871    1.0290 C.ar      1 <0>        -0.1343
     18 C14         0.0562    5.9891    1.1563 C.ar      1 <0>        -0.1210
     19 C15         0.5195    7.1145    0.4874 C.ar      1 <0>         0.0598
     20 C16         1.6559    7.0345   -0.3169 C.ar      1 <0>         0.0705
     21 C17         2.3279    5.8352   -0.4462 C.ar      1 <0>        -0.1848
     22 O3          2.1056    8.1394   -0.9699 O.3       1 <0>        -0.1981
     23 C18         3.2750    7.9853   -1.7765 C.3       1 <0>        -0.0669
     24 O4         -0.1360    8.2971    0.6175 O.3       1 <0>        -0.2753
     25 S1          0.2443    1.9676    0.8989 S.3       1 <0>         0.1882
     26 H1         -2.5704   -0.1404    1.0118 H         1 <0>         0.0942
     27 H2         -2.3893   -0.8294    2.6430 H         1 <0>         0.1068
     28 H3         -1.8500    0.8349    2.3150 H         1 <0>         0.0994
     29 H4         -2.2490   -2.5414    2.4409 H         1 <0>         0.1311
     30 H5         -1.7810   -4.9560    2.5223 H         1 <0>         0.1425
     31 H6          2.0935   -4.2636    0.8579 H         1 <0>         0.1500
     32 H7          1.6240   -1.8498    0.7656 H         1 <0>         0.2148
     33 H8          0.8534   -6.3833    2.5748 H         1 <0>         0.2266
     34 H9          3.5774    3.3982   -0.2893 H         1 <0>         0.1679
     35 H10         0.3537    3.9135    1.5500 H         1 <0>         0.1525
     36 H11        -0.8241    6.0566    1.7782 H         1 <0>         0.1483
     37 H12         3.2106    5.7732   -1.0654 H         1 <0>         0.1450
     38 H13         4.1057    7.6553   -1.1528 H         1 <0>         0.0672
     39 H14         3.0860    7.2433   -2.5523 H         1 <0>         0.0713
     40 H15         3.5252    8.9397   -2.2398 H         1 <0>         0.1133
     41 H16         0.1806    8.8438    1.3496 H         1 <0>         0.2288
@<TRIPOS>BOND
     1    1    2 1
     2    1   26 1
     3    1   27 1
     4    1   28 1
     5    2    3 1
     6    2   10 1
     7    3    8 ar
     8    3    4 ar
     9    4    5 ar
    10    4   29 1
    11    5    6 ar
    12    5   30 1
    13    6    7 ar
    14    6    9 1
    15    7    8 ar
    16    7   31 1
    17    8   32 1
    18    9   33 1
    19   10   25 1
    20   10   11 2
    21   11   12 1
    22   12   13 2
    23   12   14 1
    24   14   15 2
    25   14   25 1
    26   15   16 1
    27   15   34 1
    28   16   21 ar
    29   16   17 ar
    30   17   18 ar
    31   17   35 1
    32   18   19 ar
    33   18   36 1
    34   19   20 ar
    35   19   24 1
    36   20   21 ar
    37   20   22 1
    38   21   37 1
    39   22   23 1
    40   23   38 1
    41   23   39 1
    42   23   40 1
    43   24   41 1
@<TRIPOS>MOLECULE
ZINC02425992
   41    45     0     0     0
SMALL
USER_CHARGES

@<TRIPOS>ATOM
      1 C1         -6.1319    5.2836    2.2668 C.3       1 <0>        -0.2081
      2 C2         -5.8164    5.2062    0.7717 C.3       1 <0>        -0.0953
      3 C3         -4.3244    5.2695    0.5692 C.ar      1 <0>         0.0960
      4 N1         -3.6347    4.1479    0.5553 N.ar      1 <0>        -0.2031
      5 C4         -2.3166    4.1673    0.3784 C.ar      1 <0>         0.0529
      6 C5         -1.2630    3.1411    0.3094 C.ar      1 <0>        -0.1163
      7 C6         -1.2572    1.7520    0.3995 C.ar      1 <0>        -0.0444
      8 C7         -0.0670    1.0649    0.2945 C.ar      1 <0>        -0.1595
      9 C8          1.1188    1.7532    0.0883 C.ar      1 <0>        -0.0814
     10 C9          1.1249    3.1281   -0.0081 C.ar      1 <0>        -0.1355
     11 C10        -0.0644    3.8399    0.1013 C.ar      1 <0>         0.0707
     12 O1         -0.3432    5.1608    0.0466 O.3       1 <0>        -0.0867
     13 C11        -1.6620    5.3929    0.2061 C.ar      1 <0>        -0.1291
     14 C12        -2.4386    6.5572    0.2286 C.ar      1 <0>         0.2161
     15 N2         -3.7506    6.4472    0.4109 N.ar      1 <0>        -0.2514
     16 N3         -1.8498    7.8029    0.0636 N.pl3     1 <0>        -0.2792
     17 C13        -2.6446    8.9417   -0.0275 C.ar      1 <0>         0.0969
     18 C14        -2.1816   10.1513    0.4781 C.ar      1 <0>        -0.1623
     19 C15        -2.9613   11.2894    0.3928 C.ar      1 <0>        -0.0351
     20 C16        -4.2147   11.2251   -0.2009 C.ar      1 <0>        -0.1639
     21 C17        -4.6883    9.9990   -0.7149 C.ar      1 <0>        -0.1156
     22 C18        -3.9003    8.8659   -0.6311 C.ar      1 <0>        -0.0630
     23 C19        -6.0311   10.2837   -1.2648 C.2       1 <0>         0.3598
     24 O2         -6.7652    9.4764   -1.7981 O.2       1 <0>        -0.2997
     25 N4         -6.3025   11.5876   -1.0752 N.am      1 <0>        -0.3561
     26 C20        -5.2833   12.2093   -0.4557 C.2       1 <0>         0.3609
     27 O3         -5.2484   13.3863   -0.1563 O.2       1 <0>        -0.3044
     28 H1         -5.6594    4.4470    2.7816 H         1 <0>         0.0834
     29 H2         -5.7499    6.2212    2.6707 H         1 <0>         0.0828
     30 H3         -7.2110    5.2377    2.4133 H         1 <0>         0.0811
     31 H4         -6.2888    6.0428    0.2569 H         1 <0>         0.1108
     32 H5         -6.1984    4.2686    0.3678 H         1 <0>         0.1097
     33 H6         -2.1811    1.2150    0.5556 H         1 <0>         0.1495
     34 H7         -0.0587   -0.0125    0.3687 H         1 <0>         0.1403
     35 H8          2.0464    1.2068    0.0028 H         1 <0>         0.1412
     36 H9          2.0548    3.6533   -0.1684 H         1 <0>         0.1438
     37 H10        -0.8842    7.8799    0.0118 H         1 <0>         0.2599
     38 H11        -1.2067   10.2020    0.9400 H         1 <0>         0.1423
     39 H12        -2.5962   12.2264    0.7866 H         1 <0>         0.1521
     40 H13        -4.2566    7.9264   -1.0269 H         1 <0>         0.1770
     41 H14        -7.1249   12.0224   -1.3497 H         1 <0>         0.2629
@<TRIPOS>BOND
     1    1    2 1
     2    1   28 1
     3    1   29 1
     4    1   30 1
     5    2    3 1
     6    2   31 1
     7    2   32 1
     8    3   15 ar
     9    3    4 ar
    10    4    5 ar
    11    5   13 ar
    12    5    6 1
    13    6   11 ar
    14    6    7 ar
    15    7    8 ar
    16    7   33 1
    17    8    9 ar
    18    8   34 1
    19    9   10 ar
    20    9   35 1
    21   10   11 ar
    22   10   36 1
    23   11   12 1
    24   12   13 1
    25   13   14 ar
    26   14   15 ar
    27   14   16 1
    28   16   17 1
    29   16   37 1
    30   17   22 ar
    31   17   18 ar
    32   18   19 ar
    33   18   38 1
    34   19   20 ar
    35   19   39 1
    36   20   26 1
    37   20   21 ar
    38   21   22 ar
    39   21   23 1
    40   22   40 1
    41   23   24 2
    42   23   25 am
    43   25   26 am
    44   25   41 1
    45   26   27 2
@<TRIPOS>MOLECULE
ZINC02432791
   49    52     0     0     0
SMALL
USER_CHARGES

@<TRIPOS>ATOM
      1 C1          3.6723    9.1801   -4.9281 C.3       1 <0>        -0.2094
      2 C2          3.1073    8.5535   -3.6518 C.3       1 <0>        -0.1990
      3 C3          1.6044    8.3214   -3.8197 C.3       1 <0>         0.0195
      4 N1          1.0634    7.7214   -2.5976 N.am      1 <0>        -0.3361
      5 C4          0.9659    6.2826   -2.3254 C.3       1 <0>         0.1464
      6 H1          0.3300    5.8032   -3.0696 H         1 <0>         0.1145
      7 C5          0.3556    6.1511   -0.9567 C.2       1 <0>        -0.1926
      8 C6         -0.0701    5.3274    0.0359 C.2       1 <0>        -0.0109
      9 N2         -0.5302    6.1299    1.0404 N.2       1 <0>        -0.0884
     10 H2         -0.6657    8.1402    1.2824 H         1 <0>         0.2949
     11 N3         -0.4037    7.3651    0.7074 N.pl3     1 <0>        -0.0017
     12 C7          0.1196    7.4670   -0.4981 C.2       1 <0>        -0.2045
     13 C8          0.5758    8.3995   -1.5446 C.2       1 <0>         0.3847
     14 O1          0.5193    9.6113   -1.4662 O.2       1 <0>        -0.3548
     15 C9         -0.0409    3.8483    0.0298 C.ar      1 <0>        -0.0377
     16 C10        -1.2323    3.1238    0.0496 C.ar      1 <0>        -0.0883
     17 C11        -1.1992    1.7444    0.0389 C.ar      1 <0>        -0.1469
     18 C12         0.0126    1.0762    0.0196 C.ar      1 <0>        -0.1089
     19 C13         1.1997    1.7838   -0.0001 C.ar      1 <0>        -0.1648
     20 C14         1.1824    3.1692    0.0049 C.ar      1 <0>         0.1020
     21 O2          2.3486    3.8656   -0.0149 O.3       1 <0>        -0.3012
     22 C15         2.3379    5.6593   -2.3389 C.ar      1 <0>        -0.0718
     23 C16         3.4063    6.3313   -1.7749 C.ar      1 <0>        -0.1250
     24 C17         4.6666    5.7633   -1.7840 C.ar      1 <0>        -0.1188
     25 C18         4.8612    4.5180   -2.3596 C.ar      1 <0>         0.0496
     26 C19         3.7858    3.8419   -2.9277 C.ar      1 <0>         0.0639
     27 C20         2.5241    4.4142   -2.9102 C.ar      1 <0>        -0.2270
     28 O3          3.9718    2.6194   -3.4939 O.3       1 <0>        -0.1950
     29 C21         2.8228    1.9840   -4.0577 C.3       1 <0>        -0.0682
     30 O4          6.1004    3.9577   -2.3690 O.3       1 <0>        -0.2743
     31 H3          3.4999    8.5089   -5.7695 H         1 <0>         0.0719
     32 H4          3.1762   10.1326   -5.1156 H         1 <0>         0.0756
     33 H5          4.7429    9.3454   -4.8087 H         1 <0>         0.0810
     34 H6          3.2796    9.2247   -2.8104 H         1 <0>         0.0960
     35 H7          3.6033    7.6010   -3.4644 H         1 <0>         0.0991
     36 H8          1.4320    7.6502   -4.6610 H         1 <0>         0.0911
     37 H9          1.1084    9.2738   -4.0071 H         1 <0>         0.1121
     38 H10        -2.1797    3.6417    0.0685 H         1 <0>         0.1411
     39 H11        -2.1224    1.1841    0.0498 H         1 <0>         0.1332
     40 H12         0.0308   -0.0036    0.0152 H         1 <0>         0.1318
     41 H13         2.1419    1.2562   -0.0198 H         1 <0>         0.1416
     42 H14         2.6695    4.0702   -0.9038 H         1 <0>         0.2401
     43 H15         3.2560    7.3020   -1.3259 H         1 <0>         0.1520
     44 H16         5.4997    6.2903   -1.3427 H         1 <0>         0.1530
     45 H17         1.6869    3.8896   -3.3464 H         1 <0>         0.1467
     46 H18         2.0719    1.8361   -3.2816 H         1 <0>         0.0687
     47 H19         2.4105    2.6127   -4.8470 H         1 <0>         0.0703
     48 H20         3.1093    1.0186   -4.4746 H         1 <0>         0.1140
     49 H21         6.2903    3.4102   -1.5948 H         1 <0>         0.2303
@<TRIPOS>BOND
     1    1    2 1
     2    1   31 1
     3    1   32 1
     4    1   33 1
     5    2    3 1
     6    2   34 1
     7    2   35 1
     8    3    4 1
     9    3   36 1
    10    3   37 1
    11    4   13 am
    12    4    5 1
    13    5    6 1
    14    5    7 1
    15    5   22 1
    16    7    8 1
    17    7   12 2
    18    8   15 1
    19    8    9 2
    20    9   11 1
    21   10   11 1
    22   11   12 1
    23   12   13 1
    24   13   14 2
    25   15   20 ar
    26   15   16 ar
    27   16   17 ar
    28   16   38 1
    29   17   18 ar
    30   17   39 1
    31   18   19 ar
    32   18   40 1
    33   19   20 ar
    34   19   41 1
    35   20   21 1
    36   21   42 1
    37   22   27 ar
    38   22   23 ar
    39   23   24 ar
    40   23   43 1
    41   24   25 ar
    42   24   44 1
    43   25   26 ar
    44   25   30 1
    45   26   27 ar
    46   26   28 1
    47   27   45 1
    48   28   29 1
    49   29   46 1
    50   29   47 1
    51   29   48 1
    52   30   49 1
@<TRIPOS>MOLECULE
ZINC02432793
   49    52     0     0     0
SMALL
USER_CHARGES

@<TRIPOS>ATOM
      1 C1          3.2776    2.2254   -3.2126 C.3       1 <0>        -0.2093
      2 C2          2.2410    2.4715   -2.1145 C.3       1 <0>        -0.1998
      3 C3          2.3508    1.3738   -1.0543 C.3       1 <0>         0.0203
      4 N1          1.3582    1.6094   -0.0029 N.am      1 <0>        -0.3340
      5 C4         -0.0130    1.0865    0.0076 C.3       1 <0>         0.1432
      6 H1          0.0021   -0.0034    0.0015 H         1 <0>         0.1248
      7 C5         -0.6472    1.5872    1.2765 C.2       1 <0>        -0.1657
      8 C6         -1.7487    1.6285    2.0703 C.2       1 <0>        -0.0285
      9 N2         -1.4216    2.3917    3.1544 N.2       1 <0>        -0.1006
     10 H2          0.2596    3.3746    3.7251 H         1 <0>         0.2940
     11 N3         -0.2069    2.8001    3.0525 N.pl3     1 <0>        -0.0040
     12 C7          0.3377    2.3556    1.9375 C.2       1 <0>        -0.2096
     13 C8          1.5564    2.3388    1.1084 C.2       1 <0>         0.3839
     14 O1          2.5948    2.9046    1.3906 O.2       1 <0>        -0.3591
     15 C9         -3.0498    0.9739    1.8108 C.ar      1 <0>        -0.0248
     16 C10        -4.1926    1.7450    1.6010 C.ar      1 <0>        -0.0860
     17 C11        -5.4035    1.1292    1.3595 C.ar      1 <0>        -0.1399
     18 C12        -5.4887   -0.2518    1.3245 C.ar      1 <0>        -0.1107
     19 C13        -4.3627   -1.0261    1.5311 C.ar      1 <0>        -0.1600
     20 C14        -3.1387   -0.4220    1.7690 C.ar      1 <0>         0.0842
     21 O2         -2.0301   -1.1820    1.9661 O.3       1 <0>        -0.2929
     22 C15        -0.7716    1.5996   -1.1890 C.ar      1 <0>        -0.0649
     23 C16        -0.5964    2.9052   -1.6089 C.ar      1 <0>        -0.1338
     24 C17        -1.2858    3.3790   -2.7094 C.ar      1 <0>        -0.1267
     25 C18        -2.1633    2.5483   -3.3876 C.ar      1 <0>         0.0466
     26 C19        -2.3441    1.2361   -2.9616 C.ar      1 <0>         0.0701
     27 C20        -1.6456    0.7657   -1.8611 C.ar      1 <0>        -0.1937
     28 O3         -3.2039    0.4168   -3.6241 O.3       1 <0>        -0.1998
     29 C21        -3.3386   -0.9176   -3.1309 C.3       1 <0>        -0.0669
     30 O4         -2.8469    3.0147   -4.4669 O.3       1 <0>        -0.2770
     31 H3          4.2772    2.2385   -2.7781 H         1 <0>         0.0742
     32 H4          3.0947    1.2550   -3.6741 H         1 <0>         0.0721
     33 H5          3.1994    3.0074   -3.9679 H         1 <0>         0.0801
     34 H6          1.2414    2.4584   -2.5489 H         1 <0>         0.1030
     35 H7          2.4240    3.4419   -1.6531 H         1 <0>         0.0945
     36 H8          3.3503    1.3869   -0.6199 H         1 <0>         0.1102
     37 H9          2.1678    0.4034   -1.5158 H         1 <0>         0.0923
     38 H10        -4.1299    2.8229    1.6271 H         1 <0>         0.1438
     39 H11        -6.2882    1.7270    1.1974 H         1 <0>         0.1347
     40 H12        -6.4399   -0.7268    1.1346 H         1 <0>         0.1331
     41 H13        -4.4360   -2.1032    1.5021 H         1 <0>         0.1404
     42 H14        -1.8741   -1.4175    2.8909 H         1 <0>         0.2334
     43 H15         0.0837    3.5551   -1.0783 H         1 <0>         0.1439
     44 H16        -1.1435    4.3979   -3.0383 H         1 <0>         0.1459
     45 H17        -1.7839   -0.2525   -1.5287 H         1 <0>         0.1458
     46 H18        -4.0527   -1.4628   -3.7481 H         1 <0>         0.1089
     47 H19        -2.3709   -1.4178   -3.1671 H         1 <0>         0.0687
     48 H20        -3.6951   -0.8901   -2.1011 H         1 <0>         0.0708
     49 H21        -3.7013    3.4119   -4.2497 H         1 <0>         0.2246
@<TRIPOS>BOND
     1    1    2 1
     2    1   31 1
     3    1   32 1
     4    1   33 1
     5    2    3 1
     6    2   34 1
     7    2   35 1
     8    3    4 1
     9    3   36 1
    10    3   37 1
    11    4   13 am
    12    4    5 1
    13    5    6 1
    14    5    7 1
    15    5   22 1
    16    7    8 1
    17    7   12 2
    18    8   15 1
    19    8    9 2
    20    9   11 1
    21   10   11 1
    22   11   12 1
    23   12   13 1
    24   13   14 2
    25   15   20 ar
    26   15   16 ar
    27   16   17 ar
    28   16   38 1
    29   17   18 ar
    30   17   39 1
    31   18   19 ar
    32   18   40 1
    33   19   20 ar
    34   19   41 1
    35   20   21 1
    36   21   42 1
    37   22   27 ar
    38   22   23 ar
    39   23   24 ar
    40   23   43 1
    41   24   25 ar
    42   24   44 1
    43   25   26 ar
    44   25   30 1
    45   26   27 ar
    46   26   28 1
    47   27   45 1
    48   28   29 1
    49   29   46 1
    50   29   47 1
    51   29   48 1
    52   30   49 1
@<TRIPOS>MOLECULE
ZINC02433720
   48    51     0     0     0
SMALL
USER_CHARGES

@<TRIPOS>ATOM
      1 C1         -6.7975   -1.5000   -7.9266 C.3       1 <0>        -0.0611
      2 O1         -6.0916   -1.4750   -6.6844 O.3       1 <0>        -0.2838
      3 C2         -6.4302   -0.3687   -5.8456 C.3       1 <0>        -0.0117
      4 C3         -5.6189   -0.4436   -4.5506 C.3       1 <0>        -0.1886
      5 C4         -5.9813    0.7409   -3.6525 C.3       1 <0>         0.0150
      6 N1         -5.1199    0.7368   -2.4676 N.am      1 <0>        -0.3296
      7 C5         -3.8800    1.5063   -2.3124 C.3       1 <0>         0.1512
      8 H1         -4.0883    2.5733   -2.3907 H         1 <0>         0.1133
      9 C6         -3.3497    1.1828   -0.9424 C.2       1 <0>        -0.1995
     10 C7         -2.3805    1.3787   -0.0110 C.2       1 <0>        -0.0176
     11 N2         -2.7107    0.6069    1.0661 N.2       1 <0>        -0.0893
     12 H2         -4.2489   -0.6525    1.4733 H         1 <0>         0.2958
     13 N3         -3.8059   -0.0248    0.8333 N.pl3     1 <0>        -0.0022
     14 C8         -4.2632    0.2707   -0.3670 C.2       1 <0>        -0.1995
     15 C9         -5.3373    0.0275   -1.3469 C.2       1 <0>         0.3872
     16 O2         -6.2860   -0.7110   -1.1667 O.2       1 <0>        -0.3527
     17 C10        -1.1971    2.2575   -0.1387 C.ar      1 <0>        -0.0319
     18 C11         0.0852    1.7095   -0.1446 C.ar      1 <0>        -0.0899
     19 C12         1.1849    2.5333   -0.2696 C.ar      1 <0>        -0.1408
     20 C13         1.0209    3.9027   -0.3842 C.ar      1 <0>        -0.1075
     21 C14        -0.2450    4.4574   -0.3748 C.ar      1 <0>        -0.1550
     22 C15        -1.3589    3.6431   -0.2498 C.ar      1 <0>         0.0934
     23 O3         -2.6036    4.1872   -0.2400 O.3       1 <0>        -0.2835
     24 C16        -2.8814    1.0960   -3.3640 C.ar      1 <0>        -0.1355
     25 C17        -1.8805    0.1951   -3.0527 C.ar      1 <0>        -0.0747
     26 C18        -0.9680   -0.1858   -4.0185 C.ar      1 <0>        -0.1417
     27 C19        -1.0483    0.3426   -5.2937 C.ar      1 <0>        -0.0936
     28 C20        -2.0446    1.2477   -5.6056 C.ar      1 <0>        -0.1647
     29 C21        -2.9629    1.6256   -4.6404 C.ar      1 <0>         0.1012
     30 F1         -3.9377    2.5102   -4.9443 F         1 <0>        -0.1114
     31 H3         -7.8689   -1.5580   -7.7345 H         1 <0>         0.0553
     32 H4         -6.5777   -0.5917   -8.4878 H         1 <0>         0.0531
     33 H5         -6.4845   -2.3692   -8.5050 H         1 <0>         0.0997
     34 H6         -7.4939   -0.4033   -5.6104 H         1 <0>         0.0644
     35 H7         -6.2027    0.5629   -6.3636 H         1 <0>         0.0615
     36 H8         -4.5550   -0.4090   -4.7859 H         1 <0>         0.1018
     37 H9         -5.8463   -1.3752   -4.0326 H         1 <0>         0.1122
     38 H10        -7.0235    0.6577   -3.3445 H         1 <0>         0.1088
     39 H11        -5.8382    1.6710   -4.2026 H         1 <0>         0.1027
     40 H12         0.2171    0.6413   -0.0558 H         1 <0>         0.1394
     41 H13         2.1775    2.1078   -0.2779 H         1 <0>         0.1335
     42 H14         1.8864    4.5413   -0.4818 H         1 <0>         0.1333
     43 H15        -0.3660    5.5267   -0.4653 H         1 <0>         0.1426
     44 H16        -3.0052    4.2663   -1.1161 H         1 <0>         0.2267
     45 H17        -1.8140   -0.2148   -2.0557 H         1 <0>         0.1504
     46 H18        -0.1886   -0.8929   -3.7755 H         1 <0>         0.1377
     47 H19        -0.3319    0.0479   -6.0462 H         1 <0>         0.1386
     48 H20        -2.1070    1.6605   -6.6016 H         1 <0>         0.1467
@<TRIPOS>BOND
     1    1    2 1
     2    1   31 1
     3    1   32 1
     4    1   33 1
     5    2    3 1
     6    3    4 1
     7    3   34 1
     8    3   35 1
     9    4    5 1
    10    4   36 1
    11    4   37 1
    12    5    6 1
    13    5   38 1
    14    5   39 1
    15    6   15 am
    16    6    7 1
    17    7    8 1
    18    7    9 1
    19    7   24 1
    20    9   10 1
    21    9   14 2
    22   10   17 1
    23   10   11 2
    24   11   13 1
    25   12   13 1
    26   13   14 1
    27   14   15 1
    28   15   16 2
    29   17   22 ar
    30   17   18 ar
    31   18   19 ar
    32   18   40 1
    33   19   20 ar
    34   19   41 1
    35   20   21 ar
    36   20   42 1
    37   21   22 ar
    38   21   43 1
    39   22   23 1
    40   23   44 1
    41   24   29 ar
    42   24   25 ar
    43   25   26 ar
    44   25   45 1
    45   26   27 ar
    46   26   46 1
    47   27   28 ar
    48   27   47 1
    49   28   29 ar
    50   28   48 1
    51   29   30 1
@<TRIPOS>MOLECULE
ZINC02437100
   42    44     0     0     0
SMALL
USER_CHARGES

@<TRIPOS>ATOM
      1 C1          5.8069   11.9087    2.9177 C.3       1 <0>        -0.0622
      2 O1          5.3690   10.6757    2.3432 O.3       1 <0>        -0.2057
      3 C2          4.0552   10.5845    2.0048 C.ar      1 <0>         0.0797
      4 C3          3.2073   11.6609    2.2218 C.ar      1 <0>        -0.1981
      5 C4          1.8711   11.5716    1.8789 C.ar      1 <0>        -0.1654
      6 C5          1.3761   10.4084    1.3128 C.ar      1 <0>         0.0277
      7 C6          2.2238    9.3242    1.0982 C.ar      1 <0>         0.0706
      8 C7          3.5642    9.4163    1.4430 C.ar      1 <0>        -0.1251
      9 N1          1.7250    8.1454    0.5300 N.am      1 <0>        -0.3178
     10 C8          2.2190    6.9512    0.9126 C.2       1 <0>         0.3717
     11 O2          3.1525    6.9004    1.6900 O.2       1 <0>        -0.3340
     12 C9          1.6265    5.7042    0.3875 C.2       1 <0>        -0.1917
     13 C10         2.0357    4.3887    0.6966 C.2       1 <0>        -0.1534
     14 C11         1.2040    3.5716   -0.0174 C.2       1 <0>        -0.0772
     15 N2          0.3559    4.3824   -0.7124 N.2       1 <0>        -0.0721
     16 H1          0.1342    6.3940   -0.8533 H         1 <0>         0.2828
     17 N3          0.6213    5.6138   -0.4609 N.pl3     1 <0>        -0.0549
     18 C12         1.2208    2.0923   -0.0330 C.ar      1 <0>        -0.0258
     19 C13         2.4343    1.4054   -0.0489 C.ar      1 <0>        -0.0982
     20 C14         2.4440    0.0258   -0.0634 C.ar      1 <0>        -0.1404
     21 C15         1.2534   -0.6799   -0.0631 C.ar      1 <0>        -0.1107
     22 C16         0.0448   -0.0097   -0.0483 C.ar      1 <0>        -0.1576
     23 C17         0.0190    1.3754   -0.0331 C.ar      1 <0>         0.0948
     24 O3         -1.1684    2.0352   -0.0242 O.3       1 <0>        -0.2781
     25 O4          0.0620   10.3235    0.9707 O.3       1 <0>        -0.2267
     26 C18        -0.7487   11.4736    1.2192 C.3       1 <0>        -0.0595
     27 H2          5.6289   12.7213    2.2132 H         1 <0>         0.0652
     28 H3          5.2538   12.0977    3.8377 H         1 <0>         0.0675
     29 H4          6.8723   11.8478    3.1402 H         1 <0>         0.1091
     30 H5          3.5918   12.5701    2.6596 H         1 <0>         0.1370
     31 H6          1.2134   12.4111    2.0490 H         1 <0>         0.1383
     32 H7          4.2248    8.5787    1.2737 H         1 <0>         0.1845
     33 H8          1.0239    8.1884   -0.1390 H         1 <0>         0.2312
     34 H9          2.8365    4.0909    1.3572 H         1 <0>         0.1783
     35 H10         3.3654    1.9527   -0.0499 H         1 <0>         0.1390
     36 H11         3.3842   -0.5055   -0.0754 H         1 <0>         0.1331
     37 H12         1.2689   -1.7597   -0.0749 H         1 <0>         0.1319
     38 H13        -0.8807   -0.5664   -0.0488 H         1 <0>         0.1408
     39 H14        -1.5109    2.2166    0.8617 H         1 <0>         0.2268
     40 H15        -0.7379   11.7024    2.2848 H         1 <0>         0.0707
     41 H16        -0.3551   12.3231    0.6611 H         1 <0>         0.0674
     42 H17        -1.7718   11.2725    0.9012 H         1 <0>         0.1068
@<TRIPOS>BOND
     1    1    2 1
     2    1   27 1
     3    1   28 1
     4    1   29 1
     5    2    3 1
     6    3    8 ar
     7    3    4 ar
     8    4    5 ar
     9    4   30 1
    10    5    6 ar
    11    5   31 1
    12    6    7 ar
    13    6   25 1
    14    7    8 ar
    15    7    9 1
    16    8   32 1
    17    9   10 am
    18    9   33 1
    19   10   11 2
    20   10   12 1
    21   12   13 2
    22   12   17 1
    23   13   34 1
    24   13   14 1
    25   14   18 1
    26   14   15 2
    27   15   17 1
    28   16   17 1
    29   18   23 ar
    30   18   19 ar
    31   19   20 ar
    32   19   35 1
    33   20   21 ar
    34   20   36 1
    35   21   22 ar
    36   21   37 1
    37   22   23 ar
    38   22   38 1
    39   23   24 1
    40   24   39 1
    41   25   26 1
    42   26   40 1
    43   26   41 1
    44   26   42 1
@<TRIPOS>MOLECULE
ZINC02438586
   49    52     0     0     0
SMALL
USER_CHARGES

@<TRIPOS>ATOM
      1 C1         -0.0125    1.0871    0.0089 C.3       1 <0>        -0.0635
      2 O1         -0.6816    1.5477    1.1846 O.3       1 <0>        -0.2698
      3 C2         -0.0680    1.1275    2.4048 C.3       1 <0>        -0.0566
      4 C3         -0.8641    1.6753    3.5911 C.3       1 <0>         0.0261
      5 N1         -2.2000    1.0741    3.6020 N.am      1 <0>        -0.3346
      6 C4         -2.5708   -0.1665    4.2925 C.3       1 <0>         0.1440
      7 H1         -2.4007   -0.0636    5.3643 H         1 <0>         0.1245
      8 C5         -4.0347   -0.3811    4.0202 C.2       1 <0>        -0.1668
      9 C6         -5.1356   -1.1545    4.2073 C.2       1 <0>        -0.0264
     10 N2         -6.1580   -0.5496    3.5339 N.2       1 <0>        -0.1042
     11 H2         -6.2993    1.1367    2.4139 H         1 <0>         0.2931
     12 N3         -5.7346    0.5228    2.9654 N.pl3     1 <0>        -0.0050
     13 C7         -4.4517    0.7000    3.2112 C.2       1 <0>        -0.2063
     14 C8         -3.2854    1.5728    2.9860 C.2       1 <0>         0.3889
     15 O2         -3.3022    2.5978    2.3325 O.2       1 <0>        -0.3420
     16 C9         -5.2119   -2.4084    4.9888 C.ar      1 <0>        -0.0256
     17 C10        -5.4933   -3.6158    4.3503 C.ar      1 <0>        -0.0860
     18 C11        -5.5628   -4.7824    5.0838 C.ar      1 <0>        -0.1405
     19 C12        -5.3549   -4.7590    6.4520 C.ar      1 <0>        -0.1090
     20 C13        -5.0751   -3.5683    7.0953 C.ar      1 <0>        -0.1557
     21 C14        -4.9966   -2.3897    6.3713 C.ar      1 <0>         0.0861
     22 O3         -4.7169   -1.2195    7.0020 O.3       1 <0>        -0.2920
     23 C15        -1.7677   -1.3205    3.7501 C.ar      1 <0>        -0.0611
     24 C16        -1.4980   -1.3985    2.3960 C.ar      1 <0>        -0.1496
     25 C17        -0.7567   -2.4529    1.8961 C.ar      1 <0>        -0.1013
     26 C18        -0.2930   -3.4377    2.7471 C.ar      1 <0>        -0.2169
     27 C19        -0.5670   -3.3648    4.1049 C.ar      1 <0>         0.0924
     28 C20        -1.3065   -2.3024    4.6050 C.ar      1 <0>        -0.1414
     29 O4         -0.1125   -4.3324    4.9440 O.3       1 <0>        -0.2107
     30 C21         0.6420   -5.3959    4.3595 C.3       1 <0>        -0.0624
     31 H3          0.0024   -0.0028    0.0027 H         1 <0>         0.0503
     32 H4          1.0100    1.4645    0.0014 H         1 <0>         0.0530
     33 H5         -0.5397    1.4483   -0.8742 H         1 <0>         0.1023
     34 H6         -0.0543    0.0384    2.4484 H         1 <0>         0.0898
     35 H7          0.9535    1.5057    2.4470 H         1 <0>         0.0676
     36 H8         -0.3478    1.4303    4.5193 H         1 <0>         0.0994
     37 H9         -0.9534    2.7578    3.4998 H         1 <0>         0.1212
     38 H10        -5.6560   -3.6379    3.2829 H         1 <0>         0.1426
     39 H11        -5.7807   -5.7171    4.5887 H         1 <0>         0.1327
     40 H12        -5.4114   -5.6761    7.0197 H         1 <0>         0.1319
     41 H13        -4.9132   -3.5572    8.1631 H         1 <0>         0.1406
     42 H14        -5.4989   -0.7458    7.3171 H         1 <0>         0.2314
     43 H15        -1.8636   -0.6322    1.7285 H         1 <0>         0.1522
     44 H16        -0.5439   -2.5094    0.8387 H         1 <0>         0.1300
     45 H17         0.2819   -4.2637    2.3554 H         1 <0>         0.1338
     46 H18        -1.5208   -2.2432    5.6619 H         1 <0>         0.1509
     47 H19         0.9432   -6.0978    5.1371 H         1 <0>         0.1078
     48 H20         0.0293   -5.9128    3.6209 H         1 <0>         0.0683
     49 H21         1.5290   -4.9884    3.8745 H         1 <0>         0.0665
@<TRIPOS>BOND
     1    1    2 1
     2    1   31 1
     3    1   32 1
     4    1   33 1
     5    2    3 1
     6    3    4 1
     7    3   34 1
     8    3   35 1
     9    4    5 1
    10    4   36 1
    11    4   37 1
    12    5   14 am
    13    5    6 1
    14    6    7 1
    15    6    8 1
    16    6   23 1
    17    8    9 1
    18    8   13 2
    19    9   16 1
    20    9   10 2
    21   10   12 1
    22   11   12 1
    23   12   13 1
    24   13   14 1
    25   14   15 2
    26   16   21 ar
    27   16   17 ar
    28   17   18 ar
    29   17   38 1
    30   18   19 ar
    31   18   39 1
    32   19   20 ar
    33   19   40 1
    34   20   21 ar
    35   20   41 1
    36   21   22 1
    37   22   42 1
    38   23   28 ar
    39   23   24 ar
    40   24   25 ar
    41   24   43 1
    42   25   26 ar
    43   25   44 1
    44   26   27 ar
    45   26   45 1
    46   27   28 ar
    47   27   29 1
    48   28   46 1
    49   29   30 1
    50   30   47 1
    51   30   48 1
    52   30   49 1
@<TRIPOS>MOLECULE
ZINC02441614
   43    46     0     0     0
SMALL
USER_CHARGES

@<TRIPOS>ATOM
      1 C1         13.4116   -5.0948   -3.0664 C.3       1 <0>        -0.1725
      2 C2         13.1231   -3.9467   -2.1337 C.ar      1 <0>        -0.0883
      3 C3         14.1675   -3.2049   -1.6098 C.ar      1 <0>        -0.1108
      4 C4         13.9138   -2.1504   -0.7533 C.ar      1 <0>        -0.1520
      5 C5         12.6091   -1.8258   -0.4189 C.ar      1 <0>         0.0818
      6 C6         11.5507   -2.5766   -0.9429 C.ar      1 <0>        -0.0229
      7 C7         11.8187   -3.6388   -1.8058 C.ar      1 <0>        -0.0901
      8 C8         10.1542   -2.2414   -0.5880 C.2       1 <0>        -0.0638
      9 C9          9.6953   -1.8573    0.6413 C.2       1 <0>        -0.1458
     10 C10         8.3082   -1.6510    0.4770 C.2       1 <0>        -0.1861
     11 N1          8.0190   -1.9099   -0.7829 N.pl3     1 <0>        -0.0534
     12 N2          9.0769   -2.2560   -1.4240 N.2       1 <0>        -0.1003
     13 H1          7.1048   -1.8458   -1.1831 H         1 <0>         0.2808
     14 C11         7.3564   -1.2267    1.5242 C.2       1 <0>         0.3707
     15 O1          7.7488   -1.0258    2.6571 O.2       1 <0>        -0.3470
     16 N3          6.0529   -1.0622    1.2235 N.am      1 <0>        -0.3940
     17 C12         5.1091   -0.6415    2.2619 C.3       1 <0>         0.0442
     18 C13         3.7272   -0.5327    1.6705 C.ar      1 <0>        -0.1153
     19 C14         2.8864   -1.6302    1.6754 C.ar      1 <0>        -0.1094
     20 C15         1.6182   -1.5355    1.1336 C.ar      1 <0>        -0.1164
     21 C16         1.1864   -0.3390    0.5844 C.ar      1 <0>         0.0144
     22 C17         2.0331    0.7667    0.5800 C.ar      1 <0>         0.0018
     23 C18         3.3029    0.6644    1.1248 C.ar      1 <0>        -0.0982
     24 O2          1.3828    1.8118   -0.0100 O.3       1 <0>        -0.2052
     25 C19        -0.0116    1.4531    0.0020 C.3       1 <0>         0.1066
     26 O3          0.0057    0.0133   -0.0029 O.3       1 <0>        -0.2056
     27 O4         12.3583   -0.7857    0.4181 O.3       1 <0>        -0.2856
     28 H2         13.4303   -4.7322   -4.0941 H         1 <0>         0.0879
     29 H3         14.3790   -5.5309   -2.8173 H         1 <0>         0.0807
     30 H4         12.6342   -5.8517   -2.9622 H         1 <0>         0.0822
     31 H5         15.1859   -3.4517   -1.8713 H         1 <0>         0.1328
     32 H6         14.7334   -1.5756   -0.3479 H         1 <0>         0.1415
     33 H7         11.0064   -4.2199   -2.2166 H         1 <0>         0.1449
     34 H8         10.2718   -1.7372    1.5465 H         1 <0>         0.1713
     35 H9          5.7397   -1.2225    0.3196 H         1 <0>         0.2164
     36 H10         5.4123    0.3278    2.6574 H         1 <0>         0.1050
     37 H11         5.1029   -1.3765    3.0668 H         1 <0>         0.1040
     38 H12         3.2214   -2.5636    2.1030 H         1 <0>         0.1450
     39 H13         0.9635   -2.3944    1.1388 H         1 <0>         0.1479
     40 H14         3.9617    1.5202    1.1223 H         1 <0>         0.1503
     41 H15        -0.5126    1.8332   -0.8882 H         1 <0>         0.1335
     42 H16        -0.4955    1.8272    0.9043 H         1 <0>         0.0917
     43 H17        12.3305   -1.0311    1.3530 H         1 <0>         0.2275
@<TRIPOS>BOND
     1    1    2 1
     2    1   28 1
     3    1   29 1
     4    1   30 1
     5    2    7 ar
     6    2    3 ar
     7    3    4 ar
     8    3   31 1
     9    4    5 ar
    10    4   32 1
    11    5    6 ar
    12    5   27 1
    13    6    7 ar
    14    6    8 1
    15    7   33 1
    16    8    9 1
    17    8   12 2
    18    9   34 1
    19    9   10 2
    20   10   14 1
    21   10   11 1
    22   11   13 1
    23   11   12 1
    24   14   15 2
    25   14   16 am
    26   16   17 1
    27   16   35 1
    28   17   18 1
    29   17   36 1
    30   17   37 1
    31   18   23 ar
    32   18   19 ar
    33   19   20 ar
    34   19   38 1
    35   20   21 ar
    36   20   39 1
    37   21   26 1
    38   21   22 ar
    39   22   23 ar
    40   22   24 1
    41   23   40 1
    42   24   25 1
    43   25   26 1
    44   25   41 1
    45   25   42 1
    46   27   43 1
@<TRIPOS>MOLECULE
ZINC02443543
   46    49     0     0     0
SMALL
USER_CHARGES

@<TRIPOS>ATOM
      1 C1         -7.2942    4.5110    1.8453 C.3       1 <0>        -0.0621
      2 O1         -6.2054    3.7576    2.3829 O.3       1 <0>        -0.2144
      3 C2         -4.9841    4.3538    2.3851 C.ar      1 <0>         0.0998
      4 C3         -3.8827    3.6797    2.8921 C.ar      1 <0>        -0.1512
      5 C4         -2.6424    4.2877    2.8929 C.ar      1 <0>        -0.0652
      6 C5         -2.4981    5.5671    2.3888 C.ar      1 <0>        -0.1232
      7 C6         -3.5952    6.2433    1.8882 C.ar      1 <0>        -0.0693
      8 C7         -4.8367    5.6375    1.8800 C.ar      1 <0>        -0.2238
      9 C8         -1.1437    6.2281    2.3909 C.3       1 <0>         0.1484
     10 H1         -0.4991    5.7576    3.1333 H         1 <0>         0.1098
     11 C9         -0.5183    6.1285    1.0264 C.2       1 <0>        -0.1678
     12 C10        -0.0604    5.3275    0.0295 C.2       1 <0>        -0.0279
     13 N1          0.3835    6.1532   -0.9635 N.2       1 <0>        -0.1041
     14 H2          0.4618    8.1690   -1.1846 H         1 <0>         0.2929
     15 N2          0.2183    7.3808   -0.6193 N.pl3     1 <0>        -0.0054
     16 C11        -0.3170    7.4551    0.5829 C.2       1 <0>        -0.2070
     17 C12        -0.7979    8.3634    1.6397 C.2       1 <0>         0.3890
     18 O2         -0.7737    9.5771    1.5748 O.2       1 <0>        -0.3421
     19 N3         -1.2813    7.6606    2.6784 N.am      1 <0>        -0.3351
     20 C13        -1.8450    8.2323    3.9039 C.3       1 <0>         0.0225
     21 C14        -0.7298    8.4367    4.9312 C.3       1 <0>        -0.0257
     22 O3          0.1911    9.4158    4.4461 O.3       1 <0>        -0.3355
     23 C15        -0.0453    3.8482    0.0211 C.ar      1 <0>        -0.0309
     24 C16         1.1672    3.1597    0.0046 C.ar      1 <0>        -0.0902
     25 C17         1.1753    1.7800   -0.0027 C.ar      1 <0>        -0.1442
     26 C18        -0.0162    1.0758    0.0063 C.ar      1 <0>        -0.1104
     27 C19        -1.2240    1.7475    0.0174 C.ar      1 <0>        -0.1588
     28 C20        -1.2480    3.1327    0.0303 C.ar      1 <0>         0.0911
     29 O4         -2.4345    3.7938    0.0464 O.3       1 <0>        -0.2796
     30 H3         -8.2085    3.9205    1.9038 H         1 <0>         0.1063
     31 H4         -7.4180    5.4300    2.4183 H         1 <0>         0.0670
     32 H5         -7.0866    4.7572    0.8040 H         1 <0>         0.0678
     33 H6         -3.9949    2.6802    3.2856 H         1 <0>         0.1413
     34 H7         -1.7845    3.7632    3.2872 H         1 <0>         0.1328
     35 H8         -3.4808    7.2444    1.4994 H         1 <0>         0.1359
     36 H9         -5.6926    6.1643    1.4847 H         1 <0>         0.1330
     37 H10        -2.3101    9.1916    3.6768 H         1 <0>         0.1216
     38 H11        -2.5938    7.5527    4.3108 H         1 <0>         0.1045
     39 H12        -1.1609    8.7780    5.8723 H         1 <0>         0.0639
     40 H13        -0.2067    7.4941    5.0920 H         1 <0>         0.0613
     41 H14         0.9262    9.5965    5.0478 H         1 <0>         0.2079
     42 H15         2.0990    3.7058   -0.0029 H         1 <0>         0.1415
     43 H16         2.1148    1.2476   -0.0160 H         1 <0>         0.1328
     44 H17        -0.0020   -0.0041    0.0001 H         1 <0>         0.1319
     45 H18        -2.1501    1.1919    0.0203 H         1 <0>         0.1421
     46 H19        -2.7875    3.9900   -0.8323 H         1 <0>         0.2291
@<TRIPOS>BOND
     1    1    2 1
     2    1   30 1
     3    1   31 1
     4    1   32 1
     5    2    3 1
     6    3    8 ar
     7    3    4 ar
     8    4    5 ar
     9    4   33 1
    10    5    6 ar
    11    5   34 1
    12    6    7 ar
    13    6    9 1
    14    7    8 ar
    15    7   35 1
    16    8   36 1
    17    9   10 1
    18    9   19 1
    19    9   11 1
    20   11   12 1
    21   11   16 2
    22   12   23 1
    23   12   13 2
    24   13   15 1
    25   14   15 1
    26   15   16 1
    27   16   17 1
    28   17   18 2
    29   17   19 am
    30   19   20 1
    31   20   21 1
    32   20   37 1
    33   20   38 1
    34   21   22 1
    35   21   39 1
    36   21   40 1
    37   22   41 1
    38   23   28 ar
    39   23   24 ar
    40   24   25 ar
    41   24   42 1
    42   25   26 ar
    43   25   43 1
    44   26   27 ar
    45   26   44 1
    46   27   28 ar
    47   27   45 1
    48   28   29 1
    49   29   46 1
@<TRIPOS>MOLECULE
ZINC02443546
   46    49     0     0     0
SMALL
USER_CHARGES

@<TRIPOS>ATOM
      1 C1          5.6368   -0.1673    6.3248 C.3       1 <0>        -0.0627
      2 O1          6.1489    0.6525    5.2725 O.3       1 <0>        -0.2125
      3 C2          5.5561    0.5358    4.0552 C.ar      1 <0>         0.0988
      4 C3          6.0029    1.3019    2.9884 C.ar      1 <0>        -0.1609
      5 C4          5.3988    1.1810    1.7519 C.ar      1 <0>        -0.0712
      6 C5          4.3497    0.2974    1.5771 C.ar      1 <0>        -0.1311
      7 C6          3.8988   -0.4630    2.6402 C.ar      1 <0>        -0.0720
      8 C7          4.5032   -0.3500    3.8772 C.ar      1 <0>        -0.2252
      9 C8          3.6925    0.1676    0.2272 C.3       1 <0>         0.1470
     10 H1          4.3235    0.6157   -0.5405 H         1 <0>         0.1410
     11 C9          2.3447    0.8356    0.2424 C.2       1 <0>        -0.1576
     12 C10         1.6326    1.9798    0.4115 C.2       1 <0>        -0.0294
     13 N1          0.3191    1.6544    0.2277 N.2       1 <0>        -0.1024
     14 H2         -0.6523   -0.0720   -0.2122 H         1 <0>         0.2918
     15 N2          0.2111    0.4012   -0.0376 N.pl3     1 <0>        -0.0062
     16 C11         1.3976   -0.1726   -0.0474 C.2       1 <0>        -0.2158
     17 C12         2.1285   -1.4383   -0.2395 C.2       1 <0>         0.3837
     18 O2          1.6096   -2.5056   -0.5028 O.2       1 <0>        -0.3710
     19 N3          3.4493   -1.2461   -0.0823 N.am      1 <0>        -0.3257
     20 C13         4.4799   -2.2806   -0.2014 C.3       1 <0>         0.0235
     21 C14         4.8721   -2.4429   -1.6713 C.3       1 <0>        -0.0271
     22 O3          5.4981   -1.2439   -2.1325 O.3       1 <0>        -0.3552
     23 C15         2.1747    3.3184    0.7323 C.ar      1 <0>        -0.0252
     24 C16         1.8643    3.9272    1.9479 C.ar      1 <0>        -0.0862
     25 C17         2.3730    5.1756    2.2420 C.ar      1 <0>        -0.1405
     26 C18         3.1908    5.8268    1.3349 C.ar      1 <0>        -0.1099
     27 C19         3.5055    5.2329    0.1273 C.ar      1 <0>        -0.1575
     28 C20         3.0062    3.9776   -0.1802 C.ar      1 <0>         0.0865
     29 O4          3.3191    3.3907   -1.3646 O.3       1 <0>        -0.2896
     30 H3          5.7377   -1.2172    6.0494 H         1 <0>         0.0676
     31 H4          6.1974    0.0236    7.2399 H         1 <0>         0.1073
     32 H5          4.5846    0.0660    6.4880 H         1 <0>         0.0685
     33 H6          6.8220    1.9924    3.1245 H         1 <0>         0.1445
     34 H7          5.7460    1.7775    0.9212 H         1 <0>         0.1438
     35 H8          3.0762   -1.1490    2.5022 H         1 <0>         0.1359
     36 H9          4.1537   -0.9475    4.7062 H         1 <0>         0.1348
     37 H10         5.3557   -1.9894    0.3784 H         1 <0>         0.1117
     38 H11         4.0912   -3.2258    0.1775 H         1 <0>         0.1132
     39 H12         5.5664   -3.2771   -1.7722 H         1 <0>         0.0652
     40 H13         3.9799   -2.6389   -2.2659 H         1 <0>         0.0789
     41 H14         5.7737   -1.2753   -3.0588 H         1 <0>         0.2121
     42 H15         1.2269    3.4221    2.6584 H         1 <0>         0.1423
     43 H16         2.1326    5.6463    3.1839 H         1 <0>         0.1333
     44 H17         3.5853    6.8038    1.5721 H         1 <0>         0.1320
     45 H18         4.1445    5.7462   -0.5760 H         1 <0>         0.1404
     46 H19         2.7025    3.5965   -2.0806 H         1 <0>         0.2311
@<TRIPOS>BOND
     1    1    2 1
     2    1   30 1
     3    1   31 1
     4    1   32 1
     5    2    3 1
     6    3    8 ar
     7    3    4 ar
     8    4    5 ar
     9    4   33 1
    10    5    6 ar
    11    5   34 1
    12    6    7 ar
    13    6    9 1
    14    7    8 ar
    15    7   35 1
    16    8   36 1
    17    9   10 1
    18    9   19 1
    19    9   11 1
    20   11   12 1
    21   11   16 2
    22   12   23 1
    23   12   13 2
    24   13   15 1
    25   14   15 1
    26   15   16 1
    27   16   17 1
    28   17   18 2
    29   17   19 am
    30   19   20 1
    31   20   21 1
    32   20   37 1
    33   20   38 1
    34   21   22 1
    35   21   39 1
    36   21   40 1
    37   22   41 1
    38   23   28 ar
    39   23   24 ar
    40   24   25 ar
    41   24   42 1
    42   25   26 ar
    43   25   43 1
    44   26   27 ar
    45   26   44 1
    46   27   28 ar
    47   27   45 1
    48   28   29 1
    49   29   46 1
@<TRIPOS>MOLECULE
ZINC02444459
   46    49     0     0     0
SMALL
USER_CHARGES

@<TRIPOS>ATOM
      1 C1          7.2493   -6.0981    3.9017 C.3       1 <0>        -0.1801
      2 C2          6.0630   -5.1969    3.6744 C.ar      1 <0>        -0.0092
      3 C3          6.2438   -3.8212    3.6400 C.ar      1 <0>        -0.1711
      4 C4          5.1781   -2.9890    3.4353 C.ar      1 <0>         0.0256
      5 C5          3.9052   -3.5295    3.2607 C.ar      1 <0>        -0.2205
      6 C6          3.7122   -4.9213    3.2939 C.ar      1 <0>         0.1322
      7 C7          4.8121   -5.7485    3.5038 C.ar      1 <0>        -0.1642
      8 O1          2.4845   -5.4442    3.1246 O.3       1 <0>        -0.0931
      9 C8          1.3786   -4.7024    2.9178 C.2       1 <0>         0.0604
     10 C9          1.4393   -3.3494    2.8656 C.2       1 <0>        -0.2678
     11 C10         2.7266   -2.6695    3.0366 C.2       1 <0>         0.3342
     12 O2          2.8192   -1.4554    2.9953 O.2       1 <0>        -0.3060
     13 C11         0.0416   -2.8424    2.6227 C.3       1 <0>         0.1271
     14 H1         -0.2759   -2.2063    3.4489 H         1 <0>         0.1231
     15 N1         -0.8140   -4.0327    2.5433 N.am      1 <0>        -0.3353
     16 C12        -0.0328   -5.1149    2.7146 C.2       1 <0>         0.3595
     17 O3         -0.4266   -6.2642    2.7058 O.2       1 <0>        -0.3003
     18 C13        -2.2614   -4.0399    2.3171 C.3       1 <0>         0.0309
     19 C14        -2.5425   -4.1076    0.8147 C.3       1 <0>        -0.0426
     20 O4         -2.0729   -5.3544    0.2979 O.3       1 <0>        -0.3404
     21 C15        -0.0145   -2.0755    1.3266 C.ar      1 <0>        -0.0864
     22 C16        -0.0478   -2.7551    0.1227 C.ar      1 <0>        -0.1235
     23 C17        -0.0997   -2.0545   -1.0680 C.ar      1 <0>        -0.1261
     24 C18        -0.1233   -0.6730   -1.0575 C.ar      1 <0>        -0.1459
     25 C19        -0.0836    0.0110    0.1486 C.ar      1 <0>         0.0693
     26 C20        -0.0320   -0.6945    1.3422 C.ar      1 <0>        -0.1246
     27 O5         -0.1009    1.3698    0.1613 O.3       1 <0>        -0.2922
     28 C21         5.3787   -1.4959    3.3992 C.3       1 <0>        -0.1886
     29 H2          7.3761   -6.2691    4.9707 H         1 <0>         0.0946
     30 H3          7.0835   -7.0507    3.3985 H         1 <0>         0.0888
     31 H4          8.1461   -5.6263    3.5003 H         1 <0>         0.0883
     32 H5          7.2315   -3.4057    3.7753 H         1 <0>         0.1408
     33 H6          4.6849   -6.8206    3.5331 H         1 <0>         0.1534
     34 H7         -2.7017   -4.9075    2.8085 H         1 <0>         0.1237
     35 H8         -2.6979   -3.1294    2.7277 H         1 <0>         0.1023
     36 H9         -3.6154   -4.0235    0.6416 H         1 <0>         0.0672
     37 H10        -2.0281   -3.2889    0.3115 H         1 <0>         0.0842
     38 H11        -2.2184   -5.4665   -0.6515 H         1 <0>         0.2102
     39 H12        -0.0337   -3.8349    0.1126 H         1 <0>         0.1497
     40 H13        -0.1261   -2.5875   -2.0069 H         1 <0>         0.1339
     41 H14        -0.1679   -0.1262   -1.9878 H         1 <0>         0.1405
     42 H15        -0.0052   -0.1643    2.2827 H         1 <0>         0.1481
     43 H16         0.7768    1.7746    0.1336 H         1 <0>         0.2312
     44 H17         5.1554   -1.0755    4.3797 H         1 <0>         0.0991
     45 H18         6.4130   -1.2745    3.1358 H         1 <0>         0.0756
     46 H19         4.7127   -1.0577    2.6558 H         1 <0>         0.1242
@<TRIPOS>BOND
     1    1    2 1
     2    1   29 1
     3    1   30 1
     4    1   31 1
     5    2    7 ar
     6    2    3 ar
     7    3    4 ar
     8    3   32 1
     9    4    5 ar
    10    4   28 1
    11    5   11 1
    12    5    6 ar
    13    6    7 ar
    14    6    8 1
    15    7   33 1
    16    8    9 1
    17    9   16 1
    18    9   10 2
    19   10   11 1
    20   10   13 1
    21   11   12 2
    22   13   14 1
    23   13   15 1
    24   13   21 1
    25   15   16 am
    26   15   18 1
    27   16   17 2
    28   18   19 1
    29   18   34 1
    30   18   35 1
    31   19   20 1
    32   19   36 1
    33   19   37 1
    34   20   38 1
    35   21   26 ar
    36   21   22 ar
    37   22   23 ar
    38   22   39 1
    39   23   24 ar
    40   23   40 1
    41   24   25 ar
    42   24   41 1
    43   25   26 ar
    44   25   27 1
    45   26   42 1
    46   27   43 1
    47   28   44 1
    48   28   45 1
    49   28   46 1
@<TRIPOS>MOLECULE
ZINC02444461
   46    49     0     0     0
SMALL
USER_CHARGES

@<TRIPOS>ATOM
      1 C1          1.3834   -0.7604    1.8404 C.3       1 <0>        -0.1801
      2 C2          0.4007    0.2488    1.3050 C.ar      1 <0>        -0.0093
      3 C3          0.7759    1.5807    1.1973 C.ar      1 <0>        -0.1712
      4 C4         -0.1034    2.5094    0.7131 C.ar      1 <0>         0.0256
      5 C5         -1.3825    2.1121    0.3272 C.ar      1 <0>        -0.2206
      6 C6         -1.7702    0.7648    0.4285 C.ar      1 <0>         0.1324
      7 C7         -0.8596   -0.1617    0.9288 C.ar      1 <0>        -0.1643
      8 O1         -3.0057    0.3808    0.0606 O.3       1 <0>        -0.0933
      9 C8         -3.9362    1.2250   -0.4271 C.2       1 <0>         0.0600
     10 C9         -3.6772    2.5471   -0.5752 C.2       1 <0>        -0.2668
     11 C10        -2.3638    3.0799   -0.2012 C.2       1 <0>         0.3340
     12 O2         -2.0957    4.2623   -0.3202 O.2       1 <0>        -0.3054
     13 C11        -4.9173    3.1912   -1.1380 C.3       1 <0>         0.1264
     14 H1         -4.6996    3.6429   -2.1059 H         1 <0>         0.1234
     15 N1         -5.8992    2.1110   -1.2936 N.am      1 <0>        -0.3317
     16 C12        -5.3264    0.9677   -0.8794 C.2       1 <0>         0.3614
     17 O3         -5.8685   -0.1195   -0.8754 O.2       1 <0>        -0.3059
     18 C13        -7.2631    2.2540   -1.8090 C.3       1 <0>         0.0254
     19 C14        -7.2389    2.1992   -3.3378 C.3       1 <0>        -0.0258
     20 O4         -6.7555    0.9228   -3.7612 O.3       1 <0>        -0.3394
     21 C15        -5.4396    4.2338   -0.1835 C.ar      1 <0>        -0.0845
     22 C16        -6.0834    3.8469    0.9776 C.ar      1 <0>        -0.1212
     23 C17        -6.5636    4.8009    1.8553 C.ar      1 <0>        -0.1170
     24 C18        -6.4013    6.1439    1.5743 C.ar      1 <0>        -0.1466
     25 C19        -5.7554    6.5346    0.4106 C.ar      1 <0>         0.0711
     26 C20        -5.2697    5.5751   -0.4662 C.ar      1 <0>        -0.1271
     27 O5         -5.5948    7.8550    0.1317 O.3       1 <0>        -0.2925
     28 C21         0.3083    3.9544    0.5968 C.3       1 <0>        -0.1886
     29 H2          1.9616   -1.1774    1.0159 H         1 <0>         0.0947
     30 H3          2.0562   -0.2734    2.5462 H         1 <0>         0.0882
     31 H4          0.8432   -1.5605    2.3465 H         1 <0>         0.0887
     32 H5          1.7677    1.8852    1.4972 H         1 <0>         0.1407
     33 H6         -1.1390   -1.2012    1.0176 H         1 <0>         0.1533
     34 H7         -7.8830    1.4433   -1.4262 H         1 <0>         0.1264
     35 H8         -7.6751    3.2100   -1.4861 H         1 <0>         0.1070
     36 H9         -8.2472    2.3519   -3.7228 H         1 <0>         0.0688
     37 H10        -6.5822    2.9812   -3.7191 H         1 <0>         0.0624
     38 H11        -6.7133    0.8170   -4.7215 H         1 <0>         0.2117
     39 H12        -6.2116    2.7976    1.1989 H         1 <0>         0.1375
     40 H13        -7.0665    4.4962    2.7612 H         1 <0>         0.1356
     41 H14        -6.7766    6.8888    2.2603 H         1 <0>         0.1407
     42 H15        -4.7628    5.8768   -1.3709 H         1 <0>         0.1463
     43 H16        -4.7754    8.2335    0.4787 H         1 <0>         0.2309
     44 H17         0.6420    4.1564   -0.4210 H         1 <0>         0.0990
     45 H18        -0.5413    4.5946    0.8344 H         1 <0>         0.1243
     46 H19         1.1221    4.1574    1.2930 H         1 <0>         0.0755
@<TRIPOS>BOND
     1    1    2 1
     2    1   29 1
     3    1   30 1
     4    1   31 1
     5    2    7 ar
     6    2    3 ar
     7    3    4 ar
     8    3   32 1
     9    4    5 ar
    10    4   28 1
    11    5   11 1
    12    5    6 ar
    13    6    7 ar
    14    6    8 1
    15    7   33 1
    16    8    9 1
    17    9   16 1
    18    9   10 2
    19   10   11 1
    20   10   13 1
    21   11   12 2
    22   13   14 1
    23   13   15 1
    24   13   21 1
    25   15   16 am
    26   15   18 1
    27   16   17 2
    28   18   19 1
    29   18   34 1
    30   18   35 1
    31   19   20 1
    32   19   36 1
    33   19   37 1
    34   20   38 1
    35   21   26 ar
    36   21   22 ar
    37   22   23 ar
    38   22   39 1
    39   23   24 ar
    40   23   40 1
    41   24   25 ar
    42   24   41 1
    43   25   26 ar
    44   25   27 1
    45   26   42 1
    46   27   43 1
    47   28   44 1
    48   28   45 1
    49   28   46 1
@<TRIPOS>MOLECULE
ZINC02447652
   42    44     0     0     0
SMALL
USER_CHARGES

@<TRIPOS>ATOM
      1 C1          0.4868    5.5386    1.1369 C.3       1 <0>        -0.2068
      2 C2          0.6482    4.0407    1.1018 C.2       1 <0>         0.2976
      3 O1          0.3232    3.3756    2.0567 O.2       1 <0>        -0.3371
      4 O2          1.1533    3.4453    0.0095 O.3       1 <0>        -0.2084
      5 C3          1.1605    2.0865   -0.0048 C.ar      1 <0>         0.0700
      6 C4         -0.0366    1.3884   -0.0919 C.ar      1 <0>        -0.1293
      7 C5         -0.0330    0.0098   -0.1067 C.ar      1 <0>        -0.0929
      8 C6          1.1751   -0.6837   -0.0340 C.ar      1 <0>        -0.0438
      9 C7          2.3759    0.0208    0.0535 C.ar      1 <0>        -0.1079
     10 C8          2.3649    1.3994    0.0678 C.ar      1 <0>        -0.1216
     11 C9          1.1829   -2.1643   -0.0491 C.2       1 <0>         0.1062
     12 C10         0.0338   -2.8365   -0.1323 C.2       1 <0>        -0.3477
     13 N1          2.3922   -2.8564    0.0237 N.pl3     1 <0>        -0.2692
     14 N2          2.3996   -4.2573    0.0094 N.am      1 <0>        -0.2734
     15 C11         3.5678   -4.9258    0.0797 C.2       1 <0>         0.3750
     16 O3          4.6156   -4.3129    0.1555 O.2       1 <0>        -0.3553
     17 C12         3.5755   -6.3973    0.0646 C.2       1 <0>        -0.1473
     18 C13         4.6816   -7.2221    0.1236 C.2       1 <0>        -0.1212
     19 C14         4.1839   -8.5249    0.0811 C.2       1 <0>        -0.1409
     20 N3          2.8783   -8.4478   -0.0043 N.2       1 <0>        -0.0528
     21 N4          2.4900   -7.2236   -0.0165 N.pl3     1 <0>        -0.1145
     22 H1          1.5387   -6.9213   -0.0762 H         1 <0>         0.2833
     23 C15         5.3351   -9.5042    0.1460 C.3       1 <0>        -0.0689
     24 C16         6.5341   -8.6879    0.6744 C.3       1 <0>        -0.1624
     25 C17         6.1861   -7.2508    0.2292 C.3       1 <0>        -0.0852
     26 H2          0.8306    5.9633    0.1937 H         1 <0>         0.1010
     27 H3         -0.5640    5.7874    1.2857 H         1 <0>         0.1174
     28 H4          1.0768    5.9486    1.9565 H         1 <0>         0.1184
     29 H5         -0.9714    1.9260   -0.1526 H         1 <0>         0.1440
     30 H6         -0.9645   -0.5326   -0.1741 H         1 <0>         0.1452
     31 H7          3.3130   -0.5130    0.1102 H         1 <0>         0.1371
     32 H8          3.2942    1.9455    0.1354 H         1 <0>         0.1458
     33 H9          0.0395   -3.9164   -0.1434 H         1 <0>         0.1017
     34 H10        -0.9023   -2.3008   -0.1887 H         1 <0>         0.1324
     35 H11         3.2279   -2.3676    0.0842 H         1 <0>         0.2765
     36 H12         1.5640   -4.7461   -0.0512 H         1 <0>         0.2458
     37 H13         5.1005  -10.3182    0.8318 H         1 <0>         0.0961
     38 H14         5.5536   -9.8968   -0.8471 H         1 <0>         0.0998
     39 H15         6.5967   -8.7517    1.7608 H         1 <0>         0.0941
     40 H16         7.4631   -9.0217    0.2122 H         1 <0>         0.0931
     41 H17         6.5294   -6.5310    0.9723 H         1 <0>         0.1047
     42 H18         6.6355   -7.0359   -0.7403 H         1 <0>         0.1016
@<TRIPOS>BOND
     1    1    2 1
     2    1   26 1
     3    1   27 1
     4    1   28 1
     5    2    3 2
     6    2    4 1
     7    4    5 1
     8    5   10 ar
     9    5    6 ar
    10    6    7 ar
    11    6   29 1
    12    7    8 ar
    13    7   30 1
    14    8    9 ar
    15    8   11 1
    16    9   10 ar
    17    9   31 1
    18   10   32 1
    19   11   12 2
    20   11   13 1
    21   12   33 1
    22   12   34 1
    23   13   14 1
    24   13   35 1
    25   14   15 am
    26   14   36 1
    27   15   16 2
    28   15   17 1
    29   17   21 1
    30   17   18 2
    31   18   25 1
    32   18   19 1
    33   19   20 2
    34   19   23 1
    35   20   21 1
    36   21   22 1
    37   23   24 1
    38   23   37 1
    39   23   38 1
    40   24   25 1
    41   24   39 1
    42   24   40 1
    43   25   41 1
    44   25   42 1
@<TRIPOS>MOLECULE
ZINC02455498
   39    41     0     0     0
SMALL
USER_CHARGES

@<TRIPOS>ATOM
      1 C1          7.0773    4.8030    0.0223 C.3       1 <0>        -0.1449
      2 C2          5.9862    3.7635    0.0160 C.2       1 <0>        -0.1563
      3 C3          6.3115    2.3900    0.0023 C.2       1 <0>         0.2816
      4 O1          7.4740    2.0214   -0.0055 O.2       1 <0>        -0.3506
      5 N1          5.2980    1.4938   -0.0025 N.am      1 <0>        -0.1479
      6 C4          4.0168    1.9594    0.0063 C.2       1 <0>        -0.0881
      7 N2          3.7772    3.2602    0.0136 N.2       1 <0>        -0.1716
      8 N3          4.7252    4.1274    0.0237 N.2       1 <0>        -0.0001
      9 S1          2.6716    0.8213    0.0005 S.3       1 <0>         0.3599
     10 C5          1.2804    1.9791    0.0159 C.3       1 <0>        -0.3197
     11 C6         -0.0146    1.2083    0.0133 C.2       1 <0>         0.3157
     12 O2          0.0015   -0.0044    0.0021 O.2       1 <0>        -0.3428
     13 N4         -1.1906    1.8666    0.0178 N.am      1 <0>        -0.3122
     14 C7         -2.3883    1.1568   -0.0857 C.ar      1 <0>         0.0557
     15 C8         -2.5111   -0.0879    0.4931 C.ar      1 <0>        -0.1241
     16 C9         -3.7006   -0.8037    0.3958 C.ar      1 <0>        -0.1091
     17 C10        -4.7737   -0.2965   -0.2715 C.ar      1 <0>        -0.1286
     18 C11        -4.6899    0.9695   -0.8755 C.ar      1 <0>        -0.0224
     19 C12        -3.4859    1.7098   -0.7789 C.ar      1 <0>        -0.0481
     20 C13        -3.4023    2.9725   -1.3864 C.ar      1 <0>        -0.1244
     21 C14        -4.4796    3.4729   -2.0519 C.ar      1 <0>        -0.1196
     22 C15        -5.6658    2.7474   -2.1438 C.ar      1 <0>        -0.1254
     23 C16        -5.7815    1.5184   -1.5708 C.ar      1 <0>        -0.1110
     24 N5          5.5529    0.1518   -0.0161 N.3       1 <0>        -0.2281
     25 H1          7.3371    5.0632   -1.0038 H         1 <0>         0.1000
     26 H2          6.7280    5.6932    0.5455 H         1 <0>         0.0991
     27 H3          7.9558    4.4045    0.5297 H         1 <0>         0.1052
     28 H4          1.3268    2.6146   -0.8684 H         1 <0>         0.1467
     29 H5          1.3329    2.5982    0.9115 H         1 <0>         0.1406
     30 H6         -1.2048    2.8336    0.0930 H         1 <0>         0.2381
     31 H7         -1.6747   -0.5128    1.0280 H         1 <0>         0.1637
     32 H8         -3.7739   -1.7774    0.8573 H         1 <0>         0.1345
     33 H9         -5.6887   -0.8666   -0.3362 H         1 <0>         0.1338
     34 H10        -2.4892    3.5458   -1.3231 H         1 <0>         0.1232
     35 H11        -4.4140    4.4464   -2.5149 H         1 <0>         0.1295
     36 H12        -6.5059    3.1668   -2.6774 H         1 <0>         0.1302
     37 H13        -6.7072    0.9678   -1.6495 H         1 <0>         0.1352
     38 H14         6.5458   -0.0276   -0.0211 H         1 <0>         0.2104
     39 H15         5.1061   -0.3090    0.7624 H         1 <0>         0.1716
@<TRIPOS>BOND
     1    1    2 1
     2    1   25 1
     3    1   26 1
     4    1   27 1
     5    2    8 2
     6    2    3 1
     7    3    4 2
     8    3    5 am
     9    5    6 1
    10    5   24 1
    11    6    7 2
    12    6    9 1
    13    7    8 1
    14    9   10 1
    15   10   11 1
    16   10   28 1
    17   10   29 1
    18   11   12 2
    19   11   13 am
    20   13   14 1
    21   13   30 1
    22   14   19 ar
    23   14   15 ar
    24   15   16 ar
    25   15   31 1
    26   16   17 ar
    27   16   32 1
    28   17   18 ar
    29   17   33 1
    30   18   23 ar
    31   18   19 ar
    32   19   20 ar
    33   20   21 ar
    34   20   34 1
    35   21   22 ar
    36   21   35 1
    37   22   23 ar
    38   22   36 1
    39   23   37 1
    40   24   38 1
    41   24   39 1
@<TRIPOS>MOLECULE
ZINC02461441
   37    39     0     0     0
SMALL
USER_CHARGES

@<TRIPOS>ATOM
      1 C1         -6.1407   -3.2816    5.1292 C.3       1 <0>        -0.2117
      2 C2         -4.8998   -3.2562    4.2346 C.3       1 <0>        -0.0171
      3 O1         -4.1033   -4.4144    4.4919 O.3       1 <0>        -0.2124
      4 C3         -2.9554   -4.5462    3.7744 C.ar      1 <0>         0.1086
      5 C4         -2.1356   -5.6469    3.9745 C.ar      1 <0>        -0.1596
      6 C5         -0.9696   -5.7814    3.2467 C.ar      1 <0>        -0.0907
      7 C6         -0.6183   -4.8143    2.3141 C.ar      1 <0>        -0.0133
      8 C7         -1.4370   -3.7100    2.1182 C.ar      1 <0>        -0.0698
      9 C8         -2.6056   -3.5801    2.8428 C.ar      1 <0>        -0.2191
     10 N1          0.5629   -4.9498    1.5761 N.pl3     1 <0>        -0.8207
     11 S1          0.4982   -5.4112   -0.0130 S.o2      1 <0>         2.7625
     12 O2          1.8430   -5.5350   -0.4550 O.2       1 <0>        -0.9110
     13 O3         -0.4362   -4.5496   -0.6483 O.2       1 <0>        -0.9095
     14 C9         -0.1976   -7.0294   -0.0577 C.ar      1 <0>        -0.7486
     15 C10         0.6076   -8.1439    0.1278 C.ar      1 <0>        -0.0393
     16 C11         0.0917   -9.4131    0.0972 C.ar      1 <0>        -0.0942
     17 C12        -1.2880   -9.6270   -0.1259 C.ar      1 <0>         0.0376
     18 C13        -2.0771   -8.4692   -0.3105 C.ar      1 <0>        -0.2722
     19 C14        -1.5517   -7.2016   -0.2784 C.ar      1 <0>         0.0365
     20 S2         -3.6990   -9.1522   -0.5542 S.3       1 <0>         0.2589
     21 C15        -3.2431  -10.8735   -0.4009 C.2       1 <0>         0.0325
     22 N2         -1.9512  -10.8027   -0.1858 N.2       1 <0>        -0.2222
     23 O4         -4.0305  -11.9708   -0.4856 O.3       1 <0>        -0.2048
     24 H1         -5.8345   -3.2869    6.1753 H         1 <0>         0.0890
     25 H2         -6.7483   -2.3981    4.9330 H         1 <0>         0.0885
     26 H3         -6.7235   -4.1779    4.9167 H         1 <0>         0.0888
     27 H4         -4.3170   -2.3599    4.4472 H         1 <0>         0.0761
     28 H5         -5.2060   -3.2508    3.1886 H         1 <0>         0.0768
     29 H6         -2.4089   -6.3989    4.6999 H         1 <0>         0.1478
     30 H7         -0.3313   -6.6385    3.4026 H         1 <0>         0.1404
     31 H8         -1.1622   -2.9550    1.3965 H         1 <0>         0.1547
     32 H9         -3.2447   -2.7235    2.6874 H         1 <0>         0.1424
     33 H10         1.4197   -4.7734    1.9954 H         1 <0>         0.2521
     34 H11         1.6651   -8.0081    0.3000 H         1 <0>         0.1523
     35 H12         0.7462  -10.2593    0.2453 H         1 <0>         0.1521
     36 H13        -2.1919   -6.3441   -0.4241 H         1 <0>         0.1634
     37 H14        -4.4066  -12.2513    0.3599 H         1 <0>         0.2552
@<TRIPOS>BOND
     1    1    2 1
     2    1   24 1
     3    1   25 1
     4    1   26 1
     5    2    3 1
     6    2   27 1
     7    2   28 1
     8    3    4 1
     9    4    9 ar
    10    4    5 ar
    11    5    6 ar
    12    5   29 1
    13    6    7 ar
    14    6   30 1
    15    7    8 ar
    16    7   10 1
    17    8    9 ar
    18    8   31 1
    19    9   32 1
    20   10   11 1
    21   10   33 1
    22   11   12 2
    23   11   13 2
    24   11   14 1
    25   14   19 ar
    26   14   15 ar
    27   15   16 ar
    28   15   34 1
    29   16   17 ar
    30   16   35 1
    31   17   22 1
    32   17   18 ar
    33   18   19 ar
    34   18   20 1
    35   19   36 1
    36   20   21 1
    37   21   22 2
    38   21   23 1
    39   23   37 1
@<TRIPOS>MOLECULE
ZINC02461453
   39    41     0     0     0
SMALL
USER_CHARGES

@<TRIPOS>ATOM
      1 C1         -4.1712   -3.1055    5.3803 C.3       1 <0>        -0.2040
      2 C2         -4.2234   -4.4005    4.5672 C.3       1 <0>        -0.0800
      3 C3         -5.4186   -4.3557    3.6130 C.3       1 <0>        -0.2043
      4 C4         -2.9513   -4.5463    3.7725 C.ar      1 <0>        -0.0597
      5 C5         -2.1348   -5.6443    3.9728 C.ar      1 <0>        -0.1251
      6 C6         -0.9686   -5.7813    3.2459 C.ar      1 <0>        -0.1251
      7 C7         -0.6161   -4.8146    2.3127 C.ar      1 <0>         0.0236
      8 C8         -1.4359   -3.7103    2.1177 C.ar      1 <0>        -0.1077
      9 C9         -2.6034   -3.5822    2.8442 C.ar      1 <0>        -0.1211
     10 N1          0.5629   -4.9498    1.5761 N.pl3     1 <0>        -0.8241
     11 S1          0.4982   -5.4112   -0.0130 S.o2      1 <0>         2.7625
     12 O1          1.8430   -5.5351   -0.4550 O.2       1 <0>        -0.9102
     13 O2         -0.4362   -4.5495   -0.6483 O.2       1 <0>        -0.9075
     14 C10        -0.1977   -7.0293   -0.0577 C.ar      1 <0>        -0.7488
     15 C11         0.6075   -8.1439    0.1278 C.ar      1 <0>        -0.0389
     16 C12         0.0915   -9.4131    0.0972 C.ar      1 <0>        -0.0943
     17 C13        -1.2882   -9.6269   -0.1259 C.ar      1 <0>         0.0376
     18 C14        -2.0773   -8.4690   -0.3106 C.ar      1 <0>        -0.2722
     19 C15        -1.5518   -7.2014   -0.2784 C.ar      1 <0>         0.0368
     20 S2         -3.6992   -9.1520   -0.5543 S.3       1 <0>         0.2580
     21 C16        -3.2434  -10.8733   -0.4010 C.2       1 <0>         0.0324
     22 N2         -1.9515  -10.8025   -0.1859 N.2       1 <0>        -0.2221
     23 O3         -4.0308  -11.9706   -0.4857 O.3       1 <0>        -0.2045
     24 H1         -4.0653   -2.2565    4.7050 H         1 <0>         0.0770
     25 H2         -5.0913   -3.0000    5.9551 H         1 <0>         0.0763
     26 H3         -3.3197   -3.1374    6.0601 H         1 <0>         0.0786
     27 H4         -4.3293   -5.2495    5.2425 H         1 <0>         0.0943
     28 H5         -6.3387   -4.2502    4.1878 H         1 <0>         0.0762
     29 H6         -5.3127   -3.5066    2.9377 H         1 <0>         0.0778
     30 H7         -5.4558   -5.2782    3.0337 H         1 <0>         0.0780
     31 H8         -2.4096   -6.3957    4.6983 H         1 <0>         0.1345
     32 H9         -0.3315   -6.6392    3.4026 H         1 <0>         0.1359
     33 H10        -1.1626   -2.9547    1.3961 H         1 <0>         0.1537
     34 H11        -3.2434   -2.7259    2.6902 H         1 <0>         0.1394
     35 H12         1.4197   -4.7734    1.9954 H         1 <0>         0.2536
     36 H13         1.6650   -8.0082    0.3001 H         1 <0>         0.1524
     37 H14         0.7460  -10.2593    0.2453 H         1 <0>         0.1521
     38 H15        -2.1920   -6.3439   -0.4242 H         1 <0>         0.1639
     39 H16        -4.4070  -12.2510    0.3598 H         1 <0>         0.2549
@<TRIPOS>BOND
     1    1    2 1
     2    1   24 1
     3    1   25 1
     4    1   26 1
     5    2    3 1
     6    2    4 1
     7    2   27 1
     8    3   28 1
     9    3   29 1
    10    3   30 1
    11    4    9 ar
    12    4    5 ar
    13    5    6 ar
    14    5   31 1
    15    6    7 ar
    16    6   32 1
    17    7    8 ar
    18    7   10 1
    19    8    9 ar
    20    8   33 1
    21    9   34 1
    22   10   11 1
    23   10   35 1
    24   11   12 2
    25   11   13 2
    26   11   14 1
    27   14   19 ar
    28   14   15 ar
    29   15   16 ar
    30   15   36 1
    31   16   17 ar
    32   16   37 1
    33   17   22 1
    34   17   18 ar
    35   18   19 ar
    36   18   20 1
    37   19   38 1
    38   20   21 1
    39   21   22 2
    40   21   23 1
    41   23   39 1
@<TRIPOS>MOLECULE
ZINC02464124
   44    48     0     0     0
SMALL
USER_CHARGES

@<TRIPOS>ATOM
      1 C1         -6.4227    2.7356    1.0558 C.3       1 <0>        -0.0637
      2 O1         -6.2129    1.7198    0.0729 O.3       1 <0>        -0.2111
      3 C2         -4.9951    1.1187    0.0576 C.ar      1 <0>         0.1175
      4 C3         -4.7254    0.1231   -0.8726 C.ar      1 <0>        -0.1746
      5 C4         -3.4907   -0.4890   -0.8909 C.ar      1 <0>        -0.0635
      6 C5         -2.5110   -0.1073    0.0264 C.ar      1 <0>        -0.1191
      7 C6         -2.7872    0.8892    0.9633 C.ar      1 <0>         0.0005
      8 C7         -4.0223    1.5007    0.9725 C.ar      1 <0>        -0.2313
      9 C8         -1.1833   -0.7626    0.0097 C.ar      1 <0>         0.1190
     10 C9         -1.0654   -2.1527    0.0016 C.ar      1 <0>        -0.2246
     11 C10         0.2037   -2.7267   -0.0136 C.ar      1 <0>         0.1256
     12 N1          1.3031   -1.9796   -0.0206 N.ar      1 <0>        -0.2066
     13 C11         1.2468   -0.6603   -0.0134 C.ar      1 <0>         0.1860
     14 C12         0.0021   -0.0041    0.0020 C.ar      1 <0>        -0.2540
     15 C13        -0.0178    1.4637    0.0101 C.2       1 <0>         0.3546
     16 O2         -1.0703    2.0738    0.0184 O.2       1 <0>        -0.3283
     17 N2          1.1636    2.1193    0.0023 N.am      1 <0>        -0.3441
     18 H1          1.1711    3.1193    0.0079 H         1 <0>         0.2796
     19 C14         2.3274    1.4507   -0.0128 C.2       1 <0>         0.4095
     20 O3          3.3632    2.0871   -0.0201 O.2       1 <0>        -0.3756
     21 N3          2.3979    0.1091   -0.0203 N.am      1 <0>        -0.2925
     22 H2          3.2919   -0.3389   -0.0310 H         1 <0>         0.2864
     23 C15         0.3309   -4.2022   -0.0218 C.ar      1 <0>        -0.0440
     24 C16        -0.8114   -5.0038   -0.0147 C.ar      1 <0>        -0.1038
     25 C17        -0.6898   -6.3773   -0.0223 C.ar      1 <0>        -0.1322
     26 C18         0.5622   -6.9678   -0.0369 C.ar      1 <0>        -0.0957
     27 C19         1.7048   -6.1846   -0.0441 C.ar      1 <0>        -0.0057
     28 C20         1.5950   -4.7970   -0.0424 C.ar      1 <0>         0.0570
     29 O4          2.8479   -4.2592   -0.0455 O.3       1 <0>        -0.1766
     30 C21         3.7277   -5.3270    0.3535 C.3       1 <0>         0.0992
     31 O5          3.0290   -6.5169   -0.0577 O.3       1 <0>        -0.2062
     32 H3         -7.4334    3.1321    0.9585 H         1 <0>         0.1080
     33 H4         -6.2935    2.3104    2.0511 H         1 <0>         0.0678
     34 H5         -5.7013    3.5392    0.9075 H         1 <0>         0.0726
     35 H6         -5.4841   -0.1715   -1.5826 H         1 <0>         0.1446
     36 H7         -3.2818   -1.2633   -1.6143 H         1 <0>         0.1342
     37 H8         -2.0328    1.1836    1.6778 H         1 <0>         0.1388
     38 H9         -4.2354    2.2750    1.6947 H         1 <0>         0.1382
     39 H10        -1.9473   -2.7761    0.0074 H         1 <0>         0.1542
     40 H11        -1.7906   -4.5484   -0.0036 H         1 <0>         0.1446
     41 H12        -1.5755   -6.9953   -0.0164 H         1 <0>         0.1440
     42 H13         0.6486   -8.0444   -0.0424 H         1 <0>         0.1467
     43 H14         3.8715   -5.3213    1.4340 H         1 <0>         0.0910
     44 H15         4.6849   -5.2474   -0.1618 H         1 <0>         0.1334
@<TRIPOS>BOND
     1    1    2 1
     2    1   32 1
     3    1   33 1
     4    1   34 1
     5    2    3 1
     6    3    8 ar
     7    3    4 ar
     8    4    5 ar
     9    4   35 1
    10    5    6 ar
    11    5   36 1
    12    6    7 ar
    13    6    9 1
    14    7    8 ar
    15    7   37 1
    16    8   38 1
    17    9   14 ar
    18    9   10 ar
    19   10   11 ar
    20   10   39 1
    21   11   12 ar
    22   11   23 1
    23   12   13 ar
    24   13   21 1
    25   13   14 ar
    26   14   15 1
    27   15   16 2
    28   15   17 am
    29   17   18 1
    30   17   19 am
    31   19   20 2
    32   19   21 am
    33   21   22 1
    34   23   28 ar
    35   23   24 ar
    36   24   25 ar
    37   24   40 1
    38   25   26 ar
    39   25   41 1
    40   26   27 ar
    41   26   42 1
    42   27   31 1
    43   27   28 ar
    44   28   29 1
    45   29   30 1
    46   30   31 1
    47   30   43 1
    48   30   44 1
@<TRIPOS>MOLECULE
ZINC02474569
   45    48     0     0     0
SMALL
USER_CHARGES

@<TRIPOS>ATOM
      1 C1         -1.3264    8.4252    2.7728 C.3       1 <0>        -0.2082
      2 C2         -0.5929    8.0751    1.4766 C.3       1 <0>        -0.1605
      3 C3         -0.2797    6.5776    1.4563 C.3       1 <0>        -0.1659
      4 C4          0.4538    6.2275    0.1600 C.3       1 <0>        -0.0032
      5 O1          0.7464    4.8289    0.1410 O.3       1 <0>        -0.2404
      6 C5          1.3961    4.3536   -0.9418 C.2       1 <0>         0.3969
      7 O2          1.7054    5.1076   -1.8452 O.2       1 <0>        -0.3908
      8 C6          1.7178    2.9777   -1.0268 C.2       1 <0>        -0.2608
      9 C7          2.3612    2.3765   -2.0456 C.2       1 <0>         0.1401
     10 O3          2.4838    1.0446   -1.8859 O.3       1 <0>        -0.1575
     11 C8          2.2001    0.6969   -0.5131 C.3       1 <0>         0.2367
     12 C9          1.4039    1.9368   -0.0009 C.3       1 <0>        -0.0233
     13 C10         1.9957    2.1713    1.3535 C.2       1 <0>        -0.2697
     14 C11         3.1060    1.3854    1.4507 C.2       1 <0>         0.2719
     15 O4          3.3456    0.6799    0.3258 O.3       1 <0>        -0.1926
     16 N1          3.8946    1.3194    2.5716 N.pl3     1 <0>        -0.3696
     17 C12         1.4901    3.0556    2.3600 C.1       1 <0>        -0.0330
     18 N2          1.0889    3.7570    3.1584 N.1       1 <0>        -0.0684
     19 C13        -0.0180    1.4743    0.0101 C.2       1 <0>         0.2961
     20 O5         -1.0038    2.1801    0.0189 O.2       1 <0>        -0.2239
     21 C14         0.0021   -0.0041    0.0020 C.ar      1 <0>        -0.1304
     22 C15         1.2783   -0.4675   -0.3424 C.ar      1 <0>        -0.0656
     23 C16         1.4980   -1.8286   -0.4520 C.ar      1 <0>        -0.0870
     24 C17         0.4800   -2.7278   -0.1957 C.ar      1 <0>        -0.1093
     25 C18        -0.7750   -2.2763    0.1729 C.ar      1 <0>        -0.1190
     26 C19        -1.0185   -0.9239    0.2727 C.ar      1 <0>        -0.0667
     27 C20         2.8911    3.1197   -3.2448 C.3       1 <0>        -0.1745
     28 H1         -2.2560    7.8587    2.8287 H         1 <0>         0.0756
     29 H2         -0.6962    8.1742    3.6261 H         1 <0>         0.0766
     30 H3         -1.5495    9.4920    2.7873 H         1 <0>         0.0707
     31 H4          0.3367    8.6415    1.4207 H         1 <0>         0.0790
     32 H5         -1.2231    8.3260    0.6234 H         1 <0>         0.0795
     33 H6         -1.2092    6.0112    1.5121 H         1 <0>         0.0990
     34 H7          0.3505    6.3267    2.3095 H         1 <0>         0.1039
     35 H8          1.3834    6.7940    0.1042 H         1 <0>         0.0819
     36 H9         -0.1764    6.4785   -0.6932 H         1 <0>         0.0848
     37 H10         4.6735    0.7413    2.5833 H         1 <0>         0.2335
     38 H11         3.6733    1.8508    3.3523 H         1 <0>         0.2602
     39 H12         2.4734   -2.1919   -0.7399 H         1 <0>         0.1438
     40 H13         0.6650   -3.7882   -0.2840 H         1 <0>         0.1402
     41 H14        -1.5634   -2.9839    0.3826 H         1 <0>         0.1418
     42 H15        -1.9984   -0.5725    0.5601 H         1 <0>         0.1521
     43 H16         3.9150    3.4393   -3.0509 H         1 <0>         0.1122
     44 H17         2.8738    2.4640   -4.1153 H         1 <0>         0.0942
     45 H18         2.2677    3.9932   -3.4355 H         1 <0>         0.1497
@<TRIPOS>BOND
     1    1    2 1
     2    1   28 1
     3    1   29 1
     4    1   30 1
     5    2    3 1
     6    2   31 1
     7    2   32 1
     8    3    4 1
     9    3   33 1
    10    3   34 1
    11    4    5 1
    12    4   35 1
    13    4   36 1
    14    5    6 1
    15    6    7 2
    16    6    8 1
    17    8   12 1
    18    8    9 2
    19    9   10 1
    20    9   27 1
    21   10   11 1
    22   11   15 1
    23   11   22 1
    24   11   12 1
    25   12   13 1
    26   12   19 1
    27   13   14 2
    28   13   17 1
    29   14   15 1
    30   14   16 1
    31   16   37 1
    32   16   38 1
    33   17   18 3
    34   19   20 2
    35   19   21 1
    36   21   26 ar
    37   21   22 ar
    38   22   23 ar
    39   23   24 ar
    40   23   39 1
    41   24   25 ar
    42   24   40 1
    43   25   26 ar
    44   25   41 1
    45   26   42 1
    46   27   43 1
    47   27   44 1
    48   27   45 1
@<TRIPOS>MOLECULE
ZINC02475412
   43    45     0     0     0
SMALL
USER_CHARGES

@<TRIPOS>ATOM
      1 C1         -3.8583   -1.0354    1.7566 C.3       1 <0>        -0.2271
      2 C2         -3.5860   -0.7890    0.2713 C.3       1 <0>         0.0560
      3 C3         -3.5587   -2.1291   -0.4617 C.3       1 <0>        -0.1385
      4 C4         -2.3241   -2.8954   -0.0654 C.ar      1 <0>        -0.0177
      5 C5         -2.3339   -4.2695    0.0218 C.ar      1 <0>        -0.1190
      6 C6         -1.1833   -4.9461    0.3727 C.ar      1 <0>        -0.0504
      7 C7         -0.0206   -4.2504    0.6528 C.ar      1 <0>        -0.1204
      8 C8          0.0007   -2.8715    0.5741 C.ar      1 <0>        -0.0680
      9 C9         -1.1545   -2.1872    0.2110 C.ar      1 <0>        -0.1431
     10 C10        -1.1771   -0.7103    0.1136 C.cat     1 <0>         0.3201
     11 N1          0.0021   -0.0041    0.0020 N.pl3     1 <0>        -0.2472
     12 C11        -0.0162    1.3938    0.0164 C.ar      1 <0>         0.0589
     13 C12         0.9191    2.1097   -0.7198 C.ar      1 <0>        -0.1538
     14 C13         0.8943    3.4905   -0.7084 C.ar      1 <0>         0.0199
     15 C14        -0.0528    4.1604    0.0443 C.ar      1 <0>        -0.7549
     16 C15        -0.9815    3.4507    0.7833 C.ar      1 <0>         0.0152
     17 C16        -0.9662    2.0697    0.7713 C.ar      1 <0>        -0.2314
     18 S1         -0.0766    5.9221    0.0614 S.o2      1 <0>         2.7573
     19 O1          0.5499    6.3485   -1.1406 O.2       1 <0>        -0.8917
     20 O2         -1.3996    6.3071    0.4090 O.2       1 <0>        -0.8977
     21 N2          0.9011    6.4130    1.3046 N.pl3     1 <0>        -0.9264
     22 C17        -4.7085    0.0755   -0.3061 C.3       1 <0>        -0.2273
     23 H1         -3.9092   -0.0806    2.2799 H         1 <0>         0.0964
     24 H2         -4.8055   -1.5627    1.8698 H         1 <0>         0.1171
     25 H3         -3.0541   -1.6384    2.1783 H         1 <0>         0.0935
     26 H4         -4.4448   -2.7059   -0.1967 H         1 <0>         0.1385
     27 H5         -3.5475   -1.9543   -1.5375 H         1 <0>         0.1252
     28 H6         -3.2377   -4.8192   -0.1960 H         1 <0>         0.1619
     29 H7         -1.1922   -6.0242    0.4364 H         1 <0>         0.1637
     30 H8          0.8732   -4.7873    0.9343 H         1 <0>         0.1639
     31 H9          0.9081   -2.3284    0.7934 H         1 <0>         0.1392
     32 H10         0.8442   -0.4772   -0.0864 H         1 <0>         0.2782
     33 H11         1.6621    1.5872   -1.3040 H         1 <0>         0.1583
     34 H12         1.6180    4.0478   -1.2847 H         1 <0>         0.1818
     35 H13        -1.7199    3.9768    1.3701 H         1 <0>         0.1762
     36 H14        -1.6923    1.5160    1.3481 H         1 <0>         0.1519
     37 H15         1.3529    5.7546    1.8553 H         1 <0>         0.2308
     38 H16         1.0221    7.3589    1.4821 H         1 <0>         0.2590
     39 H17        -4.5130    0.2678   -1.3610 H         1 <0>         0.0982
     40 H18        -5.6595   -0.4468   -0.2022 H         1 <0>         0.1203
     41 H19        -4.7527    1.0215    0.2336 H         1 <0>         0.0972
     42 N3         -2.3152    0.0012    0.1207 N.pl3     1 <0>        -0.2764
     43 H20        -2.3180    1.0238    0.0288 H         1 <0>         0.3123
@<TRIPOS>BOND
     1    1    2 1
     2    1   23 1
     3    1   24 1
     4    1   25 1
     5    2    3 1
     6    2   22 1
     7    2   42 1
     8    3    4 1
     9    3   26 1
    10    3   27 1
    11    4    9 ar
    12    4    5 ar
    13    5    6 ar
    14    5   28 1
    15    6    7 ar
    16    6   29 1
    17    7    8 ar
    18    7   30 1
    19    8    9 ar
    20    8   31 1
    21    9   10 1
    22   10   11 1
    23   10   42 2
    24   11   12 1
    25   11   32 1
    26   12   17 ar
    27   12   13 ar
    28   13   14 ar
    29   13   33 1
    30   14   15 ar
    31   14   34 1
    32   15   16 ar
    33   15   18 1
    34   16   17 ar
    35   16   35 1
    36   17   36 1
    37   18   19 2
    38   18   20 2
    39   18   21 1
    40   21   37 1
    41   21   38 1
    42   22   39 1
    43   22   40 1
    44   22   41 1
    45   42   43 1
@<TRIPOS>MOLECULE
ZINC02485379
   47    50     0     0     0
SMALL
USER_CHARGES

@<TRIPOS>ATOM
      1 C1         14.3146   -0.2161   -0.6049 C.ar      1 <0>        -0.1310
      2 C2         13.6049   -1.0415   -1.4569 C.ar      1 <0>        -0.1254
      3 C3         12.6811   -0.5014   -2.3320 C.ar      1 <0>        -0.1262
      4 C4         12.4663    0.8639   -2.3544 C.ar      1 <0>        -0.0752
      5 C5         13.1794    1.6898   -1.5057 C.ar      1 <0>        -0.1273
      6 C6         14.1001    1.1493   -0.6276 C.ar      1 <0>        -0.1255
      7 C7         11.4591    1.4527   -3.3084 C.3       1 <0>        -0.1194
      8 C8         10.0874    1.5061   -2.6328 C.3       1 <0>        -0.1038
      9 C9          9.0410    1.9868   -3.6408 C.3       1 <0>        -0.1669
     10 C10         7.6635    2.0063   -2.9708 C.3       1 <0>        -0.0026
     11 N1          7.7431    2.8194   -1.7496 N.pl3     1 <0>        -0.8380
     12 C11         8.7785    2.5028   -0.7564 C.3       1 <0>        -0.0035
     13 C12        10.1399    2.4742   -1.4487 C.3       1 <0>        -0.1704
     14 S1          6.6903    4.0731   -1.5006 S.o2      1 <0>         2.7657
     15 O1          6.2344    4.4815   -2.7831 O.2       1 <0>        -0.9194
     16 O2          7.3289    4.9667   -0.5990 O.2       1 <0>        -0.9124
     17 C13         5.2909    3.4179   -0.6538 C.ar      1 <0>        -0.7461
     18 C14         5.2727    3.3963    0.7331 C.ar      1 <0>        -0.0566
     19 C15         4.1868    2.8882    1.4098 C.ar      1 <0>        -0.0916
     20 C16         3.0946    2.3905    0.6949 C.ar      1 <0>         0.0084
     21 C17         3.1182    2.4148   -0.7092 C.ar      1 <0>        -0.0697
     22 C18         4.2205    2.9303   -1.3744 C.ar      1 <0>        -0.0120
     23 N2          1.9173    1.8639   -1.1231 N.pl3     1 <0>        -0.2375
     24 H1          1.6188    1.7349   -2.0687 H         1 <0>         0.2587
     25 C19         1.2172    1.5298   -0.0013 C.2       1 <0>         0.1696
     26 N3          1.9065    1.8438    1.0645 N.2       1 <0>        -0.1866
     27 O3         -0.0110    0.9628    0.0073 O.3       1 <0>        -0.2318
     28 H2         15.0364   -0.6380    0.0788 H         1 <0>         0.1289
     29 H3         13.7725   -2.1083   -1.4392 H         1 <0>         0.1287
     30 H4         12.1269   -1.1463   -2.9979 H         1 <0>         0.1286
     31 H5         13.0147    2.7570   -1.5263 H         1 <0>         0.1318
     32 H6         14.6543    1.7941    0.0383 H         1 <0>         0.1298
     33 H7         11.3998    0.8323   -4.2026 H         1 <0>         0.0890
     34 H8         11.7672    2.4609   -3.5854 H         1 <0>         0.0924
     35 H9          9.8188    0.5115   -2.2770 H         1 <0>         0.0945
     36 H10         9.0206    1.3097   -4.4948 H         1 <0>         0.0868
     37 H11         9.2956    2.9914   -3.9784 H         1 <0>         0.0961
     38 H12         7.3677    0.9891   -2.7139 H         1 <0>         0.0765
     39 H13         6.9319    2.4408   -3.6521 H         1 <0>         0.1096
     40 H14         8.7823    3.2648    0.0230 H         1 <0>         0.1127
     41 H15         8.5754    1.5270   -0.3152 H         1 <0>         0.0788
     42 H16        10.9017    2.1441   -0.7424 H         1 <0>         0.1000
     43 H17        10.3842    3.4743   -1.8069 H         1 <0>         0.0929
     44 H18         6.1167    3.7813    1.2862 H         1 <0>         0.1532
     45 H19         4.1792    2.8748    2.4897 H         1 <0>         0.1508
     46 H20         4.2410    2.9497   -2.4540 H         1 <0>         0.1456
     47 H21         0.0021   -0.0041    0.0020 H         1 <0>         0.2500
@<TRIPOS>BOND
     1    1    6 ar
     2    1    2 ar
     3    1   28 1
     4    2    3 ar
     5    2   29 1
     6    3    4 ar
     7    3   30 1
     8    4    5 ar
     9    4    7 1
    10    5    6 ar
    11    5   31 1
    12    6   32 1
    13    7    8 1
    14    7   33 1
    15    7   34 1
    16    8   13 1
    17    8    9 1
    18    8   35 1
    19    9   10 1
    20    9   36 1
    21    9   37 1
    22   10   11 1
    23   10   38 1
    24   10   39 1
    25   11   12 1
    26   11   14 1
    27   12   13 1
    28   12   40 1
    29   12   41 1
    30   13   42 1
    31   13   43 1
    32   14   15 2
    33   14   16 2
    34   14   17 1
    35   17   22 ar
    36   17   18 ar
    37   18   19 ar
    38   18   44 1
    39   19   20 ar
    40   19   45 1
    41   20   26 1
    42   20   21 ar
    43   21   22 ar
    44   21   23 1
    45   22   46 1
    46   23   24 1
    47   23   25 1
    48   25   26 2
    49   25   27 1
    50   27   47 1
@<TRIPOS>MOLECULE
ZINC02490472
   45    47     0     0     0
SMALL
USER_CHARGES

@<TRIPOS>ATOM
      1 C1          2.0644    5.5524   -2.5265 C.3       1 <0>        -0.1750
      2 C2          1.5953    5.0116   -1.2005 C.2       1 <0>         0.1034
      3 C3          1.0578    3.7847   -1.1555 C.2       1 <0>        -0.1969
      4 C4          0.5795    3.2015    0.1423 C.3       1 <0>         0.0855
      5 C5         -0.9276    3.1850    0.1923 C.ar      1 <0>        -0.1194
      6 C6         -1.8814    4.1768    0.1430 C.ar      1 <0>        -0.0569
      7 C7         -3.2238    3.8487    0.2144 C.ar      1 <0>        -0.1570
      8 C8         -3.6030    2.5242    0.3349 C.ar      1 <0>        -0.0902
      9 C9         -2.6501    1.5280    0.3837 C.ar      1 <0>        -0.1605
     10 C10        -1.2965    1.8496    0.3059 C.ar      1 <0>         0.0811
     11 N1         -0.1624    1.0368    0.3395 N.am      1 <0>        -0.2986
     12 C11         0.9754    1.7474    0.2442 C.2       1 <0>         0.3322
     13 O1          2.1047    1.3049    0.2407 O.2       1 <0>        -0.3153
     14 C12         1.1352    3.9761    1.3028 C.2       1 <0>        -0.3221
     15 C13         1.6766    5.2085    1.1112 C.2       1 <0>         0.3035
     16 O2          1.7304    5.7742   -0.1058 O.3       1 <0>        -0.1458
     17 N2          2.1795    5.8906    2.1865 N.pl3     1 <0>        -0.3852
     18 C14         1.0949    3.4248    2.5928 C.2       1 <0>         0.3955
     19 O3          1.6139    4.0146    3.5236 O.2       1 <0>        -0.4127
     20 O4          0.4805    2.2404    2.8021 O.3       1 <0>        -0.2531
     21 C15         0.4776    1.7386    4.1401 C.3       1 <0>         0.0267
     22 C16        -0.2472    0.4180    4.1797 C.2       1 <0>        -0.1697
     23 C17         0.2627   -0.5894    4.8440 C.2       1 <0>        -0.2063
     24 C18         0.9390    3.0289   -2.3479 C.2       1 <0>         0.3581
     25 O5         -0.1381    2.9386   -2.9061 O.2       1 <0>        -0.3367
     26 O6          2.0205    2.4094   -2.8644 O.3       1 <0>        -0.2511
     27 C19         1.8281    1.6647   -4.0688 C.3       1 <0>        -0.0570
     28 H1          1.2661    6.1374   -2.9833 H         1 <0>         0.1075
     29 H2          2.9371    6.1870   -2.3719 H         1 <0>         0.1037
     30 H3          2.3294    4.7240   -3.1835 H         1 <0>         0.1172
     31 H4         -1.5819    5.2102    0.0491 H         1 <0>         0.1308
     32 H5         -3.9736    4.6251    0.1765 H         1 <0>         0.1324
     33 H6         -4.6508    2.2684    0.3908 H         1 <0>         0.1317
     34 H7         -2.9541    0.4959    0.4774 H         1 <0>         0.1289
     35 H8         -0.1916    0.0704    0.4184 H         1 <0>         0.2443
     36 H9          2.0479    6.8490    2.2577 H         1 <0>         0.2264
     37 H10         2.6675    5.4155    2.8772 H         1 <0>         0.2845
     38 H11         1.5045    1.5997    4.4783 H         1 <0>         0.0923
     39 H12        -0.0272    2.4499    4.7938 H         1 <0>         0.0944
     40 H13        -1.1871    0.3020    3.6605 H         1 <0>         0.1326
     41 H14        -0.2568   -1.5359    4.8724 H         1 <0>         0.1172
     42 H15         1.2025   -0.4735    5.3632 H         1 <0>         0.1154
     43 H16         2.7742    1.2186   -4.3753 H         1 <0>         0.1068
     44 H17         1.0943    0.8775   -3.8959 H         1 <0>         0.0828
     45 H18         1.4689    2.3301   -4.8539 H         1 <0>         0.0746
@<TRIPOS>BOND
     1    1    2 1
     2    1   28 1
     3    1   29 1
     4    1   30 1
     5    2   16 1
     6    2    3 2
     7    3    4 1
     8    3   24 1
     9    4   12 1
    10    4    5 1
    11    4   14 1
    12    5   10 ar
    13    5    6 ar
    14    6    7 ar
    15    6   31 1
    16    7    8 ar
    17    7   32 1
    18    8    9 ar
    19    8   33 1
    20    9   10 ar
    21    9   34 1
    22   10   11 1
    23   11   12 am
    24   11   35 1
    25   12   13 2
    26   14   15 2
    27   14   18 1
    28   15   16 1
    29   15   17 1
    30   17   36 1
    31   17   37 1
    32   18   19 2
    33   18   20 1
    34   20   21 1
    35   21   22 1
    36   21   38 1
    37   21   39 1
    38   22   23 2
    39   22   40 1
    40   23   41 1
    41   23   42 1
    42   24   25 2
    43   24   26 1
    44   26   27 1
    45   27   43 1
    46   27   44 1
    47   27   45 1
@<TRIPOS>MOLECULE
ZINC02490475
   45    47     0     0     0
SMALL
USER_CHARGES

@<TRIPOS>ATOM
      1 C1          0.5666    0.0612   -0.0167 C.3       1 <0>        -0.1631
      2 C2          0.2515    1.5348    0.0012 C.2       1 <0>         0.1496
      3 C3          1.2621    2.4130   -0.0573 C.2       1 <0>        -0.2300
      4 C4          1.0000    3.8910   -0.0392 C.3       1 <0>         0.0782
      5 C5          1.2380    4.4879   -1.4033 C.ar      1 <0>        -0.1273
      6 C6          0.6604    4.2789   -2.6357 C.ar      1 <0>        -0.0652
      7 C7          1.1008    4.9940   -3.7356 C.ar      1 <0>        -0.1629
      8 C8          2.1207    5.9171   -3.5929 C.ar      1 <0>        -0.0908
      9 C9          2.7010    6.1295   -2.3598 C.ar      1 <0>        -0.1649
     10 C10         2.2629    5.4139   -1.2474 C.ar      1 <0>         0.0913
     11 N1          2.6831    5.4491    0.0833 N.am      1 <0>        -0.2902
     12 C11         1.9958    4.5898    0.8564 C.2       1 <0>         0.3516
     13 O1          2.1467    4.4100    2.0463 O.2       1 <0>        -0.3286
     14 C12        -0.4017    4.1706    0.4213 C.2       1 <0>        -0.3228
     15 C13        -1.3274    3.1753    0.4535 C.2       1 <0>         0.2972
     16 O2         -1.0304    1.9217    0.0695 O.3       1 <0>        -0.1446
     17 N2         -2.5961    3.4585    0.8835 N.pl3     1 <0>        -0.3822
     18 C14        -0.7584    5.4676    0.8214 C.2       1 <0>         0.3961
     19 O3         -1.8683    5.6813    1.2755 O.2       1 <0>        -0.4147
     20 O4          0.1290    6.4789    0.7029 O.3       1 <0>        -0.2517
     21 C15        -0.3014    7.7730    1.1296 C.3       1 <0>         0.0262
     22 C16         0.8130    8.7663    0.9236 C.2       1 <0>        -0.1664
     23 C17         0.5586    9.9345    0.3882 C.2       1 <0>        -0.2079
     24 C18         2.5953    1.9403   -0.1367 C.2       1 <0>         0.3731
     25 O5          2.8122    0.7497   -0.2605 O.2       1 <0>        -0.3839
     26 O6          3.6244    2.8107   -0.0751 O.3       1 <0>        -0.2538
     27 C19         4.9420    2.2645   -0.1616 C.3       1 <0>        -0.0510
     28 H1          1.2528   -0.1735    0.7970 H         1 <0>         0.1332
     29 H2         -0.3541   -0.5087    0.1087 H         1 <0>         0.0839
     30 H3          1.0288   -0.2000   -0.9686 H         1 <0>         0.1303
     31 H4         -0.1361    3.5576   -2.7437 H         1 <0>         0.1303
     32 H5          0.6488    4.8318   -4.7030 H         1 <0>         0.1323
     33 H6          2.4644    6.4748   -4.4515 H         1 <0>         0.1315
     34 H7          3.4965    6.8526   -2.2561 H         1 <0>         0.1293
     35 H8          3.3890    6.0272    0.4125 H         1 <0>         0.2417
     36 H9         -3.3574    3.0255    0.4667 H         1 <0>         0.2256
     37 H10        -2.7335    4.0922    1.6049 H         1 <0>         0.2868
     38 H11        -1.1713    8.0769    0.5473 H         1 <0>         0.0907
     39 H12        -0.5660    7.7377    2.1865 H         1 <0>         0.0964
     40 H13         1.8215    8.5150    1.2174 H         1 <0>         0.1316
     41 H14         1.3572   10.6463    0.2405 H         1 <0>         0.1173
     42 H15        -0.4499   10.1857    0.0944 H         1 <0>         0.1144
     43 H16         5.1002    1.5654    0.6597 H         1 <0>         0.0816
     44 H17         5.0571    1.7416   -1.1110 H         1 <0>         0.0788
     45 H18         5.6740    3.0698   -0.0992 H         1 <0>         0.1026
@<TRIPOS>BOND
     1    1    2 1
     2    1   28 1
     3    1   29 1
     4    1   30 1
     5    2   16 1
     6    2    3 2
     7    3    4 1
     8    3   24 1
     9    4   12 1
    10    4    5 1
    11    4   14 1
    12    5   10 ar
    13    5    6 ar
    14    6    7 ar
    15    6   31 1
    16    7    8 ar
    17    7   32 1
    18    8    9 ar
    19    8   33 1
    20    9   10 ar
    21    9   34 1
    22   10   11 1
    23   11   12 am
    24   11   35 1
    25   12   13 2
    26   14   15 2
    27   14   18 1
    28   15   16 1
    29   15   17 1
    30   17   36 1
    31   17   37 1
    32   18   19 2
    33   18   20 1
    34   20   21 1
    35   21   22 1
    36   21   38 1
    37   21   39 1
    38   22   23 2
    39   22   40 1
    40   23   41 1
    41   23   42 1
    42   24   25 2
    43   24   26 1
    44   26   27 1
    45   27   43 1
    46   27   44 1
    47   27   45 1
@<TRIPOS>MOLECULE
ZINC02497938
   45    47     0     0     0
SMALL
USER_CHARGES

@<TRIPOS>ATOM
      1 C1          3.7250   -3.3886    3.2972 C.3       1 <0>        -0.1729
      2 C2          2.7294   -2.2846    3.0503 C.2       1 <0>         0.0829
      3 C3          2.7913   -1.1102    3.8148 C.2       1 <0>         0.2043
      4 N1          1.9274   -0.1353    3.6122 N.am      1 <0>        -0.1713
      5 C4          0.9880   -0.2687    2.6710 C.ar      1 <0>        -0.0276
      6 C5          0.0504    0.7575    2.4293 C.ar      1 <0>        -0.0169
      7 C6         -0.8827    0.5649    1.4561 C.ar      1 <0>        -0.1763
      8 C7         -0.8918   -0.6326    0.7250 C.ar      1 <0>         0.2414
      9 C8          0.9259   -1.4535    1.8987 C.ar      1 <0>         0.0668
     10 N2          1.8130   -2.4317    2.1221 N.2       1 <0>        -0.1653
     11 N3         -1.8470   -0.8161   -0.2629 N.pl3     1 <0>        -0.2710
     12 C9         -1.8972   -2.0764   -1.0080 C.3       1 <0>        -0.1049
     13 C10        -2.8060    0.2503   -0.5615 C.3       1 <0>        -0.0092
     14 H1         -2.8207    0.9664    0.2602 H         1 <0>         0.1194
     15 C11        -4.2010   -0.3529   -0.7374 C.3       1 <0>        -0.2240
     16 C12        -2.3919    0.9622   -1.8509 C.3       1 <0>         0.0770
     17 H2         -3.1325    1.7220   -2.1005 H         1 <0>         0.1582
     18 C13        -1.0482    1.6158   -1.6547 C.ar      1 <0>        -0.1404
     19 C14         0.1102    0.8911   -1.8649 C.ar      1 <0>        -0.1400
     20 C15         1.3427    1.4920   -1.6891 C.ar      1 <0>        -0.1206
     21 C16         1.4168    2.8146   -1.2942 C.ar      1 <0>        -0.1128
     22 C17         0.2585    3.5377   -1.0790 C.ar      1 <0>        -0.1135
     23 C18        -0.9740    2.9382   -1.2590 C.ar      1 <0>        -0.1188
     24 O1         -2.3082    0.0112   -2.9143 O.3       1 <0>        -0.3234
     25 O2          3.7459   -0.9770    4.7691 O.2       1 <0>        -0.3401
     26 H3          4.5994   -3.2374    2.6644 H         1 <0>         0.1308
     27 H4          4.0279   -3.3772    4.3443 H         1 <0>         0.1410
     28 H5          3.2677   -4.3495    3.0617 H         1 <0>         0.1180
     29 H6          0.0723    1.6731    3.0016 H         1 <0>         0.1832
     30 H7         -1.6110    1.3338    1.2446 H         1 <0>         0.1972
     31 H8         -2.4734   -2.8095   -0.4435 H         1 <0>         0.1119
     32 H9         -2.3715   -1.9080   -1.9750 H         1 <0>         0.1507
     33 H10        -0.8844   -2.4492   -1.1602 H         1 <0>         0.0812
     34 H11        -4.4960   -0.8601    0.1811 H         1 <0>         0.0922
     35 H12        -4.9146    0.4405   -0.9597 H         1 <0>         0.1173
     36 H13        -4.1863   -1.0689   -1.5591 H         1 <0>         0.1056
     37 H14         0.0521   -0.1433   -2.1697 H         1 <0>         0.1147
     38 H15         2.2476    0.9271   -1.8575 H         1 <0>         0.1417
     39 H16         2.3798    3.2832   -1.1543 H         1 <0>         0.1481
     40 H17         0.3164    4.5711   -0.7705 H         1 <0>         0.1489
     41 H18        -1.8790    3.5030   -1.0908 H         1 <0>         0.1399
     42 H19        -1.5708   -0.6086   -2.8305 H         1 <0>         0.2103
     43 H20         1.9748    0.7000    4.1600 H         1 <0>         0.2893
     44 N4         -0.0166   -1.6516    0.9144 N.ar      1 <0>        -0.1403
     45 H21        -0.0543   -2.5146    0.3594 H         1 <0>         0.3172
@<TRIPOS>BOND
     1    1    2 1
     2    1   26 1
     3    1   27 1
     4    1   28 1
     5    2    3 1
     6    2   10 2
     7    3    4 am
     8    3   25 2
     9    4   43 1
    10    4    5 1
    11    5    6 ar
    12    5    9 ar
    13    6    7 ar
    14    6   29 1
    15    7    8 ar
    16    7   30 1
    17    8   11 1
    18    8   44 ar
    19    9   44 ar
    20    9   10 1
    21   11   12 1
    22   11   13 1
    23   12   31 1
    24   12   32 1
    25   12   33 1
    26   13   14 1
    27   13   15 1
    28   13   16 1
    29   15   34 1
    30   15   35 1
    31   15   36 1
    32   16   17 1
    33   16   18 1
    34   16   24 1
    35   18   23 ar
    36   18   19 ar
    37   19   20 ar
    38   19   37 1
    39   20   21 ar
    40   20   38 1
    41   21   22 ar
    42   21   39 1
    43   22   23 ar
    44   22   40 1
    45   23   41 1
    46   24   42 1
    47   44   45 1
@<TRIPOS>MOLECULE
ZINC02499743
   46    49     0     0     0
SMALL
USER_CHARGES

@<TRIPOS>ATOM
      1 C1          7.1413   -1.6742    3.9575 C.ar      1 <0>        -0.1060
      2 C2          6.3117   -2.5692    3.3084 C.ar      1 <0>        -0.1283
      3 C3          5.9079   -2.3209    2.0098 C.ar      1 <0>        -0.1168
      4 C4          6.3336   -1.1771    1.3605 C.ar      1 <0>        -0.1107
      5 C5          7.1675   -0.2846    2.0078 C.ar      1 <0>        -0.1057
      6 C6          7.5677   -0.5309    3.3079 C.ar      1 <0>        -0.1225
      7 C7          5.8935   -0.9062   -0.0551 C.3       1 <0>        -0.0737
      8 C8          4.6102   -0.1163   -0.0397 C.2       1 <0>         0.0994
      9 C9          4.6577    1.2854   -0.0335 C.2       1 <0>         0.2100
     10 N1          3.5445    1.9913   -0.0214 N.am      1 <0>        -0.1756
     11 C10         2.3639    1.3648   -0.0149 C.ar      1 <0>        -0.0106
     12 C11         1.1551    2.0923   -0.0003 C.ar      1 <0>        -0.0296
     13 C12        -0.0170    1.3988    0.0071 C.ar      1 <0>        -0.1430
     14 C13         0.0021   -0.0041    0.0003 C.ar      1 <0>         0.1659
     15 C14         2.3157   -0.0499   -0.0203 C.ar      1 <0>         0.0576
     16 N2          3.4591   -0.7472   -0.0324 N.2       1 <0>        -0.1656
     17 N3         -1.1981   -0.6980    0.0076 N.pl3     1 <0>        -0.1521
     18 C15        -2.0118   -0.3587   -1.1743 C.3       1 <0>        -0.0818
     19 C16        -2.3143   -1.6781   -1.9150 C.3       1 <0>        -0.1834
     20 C17        -2.1374   -2.7496   -0.8071 C.3       1 <0>        -0.1525
     21 C18        -0.9659   -2.1580    0.0160 C.3       1 <0>        -0.0668
     22 H1         -0.0127   -2.3934   -0.4575 H         1 <0>         0.0787
     23 C19        -0.9973   -2.6943    1.4486 C.3       1 <0>         0.0069
     24 O1         -2.3087   -2.5271    1.9910 O.3       1 <0>        -0.3369
     25 O2          5.8571    1.9188   -0.0406 O.2       1 <0>        -0.3352
     26 H2          7.4561   -1.8679    4.9722 H         1 <0>         0.1422
     27 H3          5.9785   -3.4625    3.8159 H         1 <0>         0.1383
     28 H4          5.2597   -3.0202    1.5027 H         1 <0>         0.1284
     29 H5          7.5036    0.6068    1.4990 H         1 <0>         0.1526
     30 H6          8.2156    0.1686    3.8151 H         1 <0>         0.1445
     31 H7          5.7319   -1.8519   -0.5726 H         1 <0>         0.1260
     32 H8          6.6648   -0.3360   -0.5726 H         1 <0>         0.1470
     33 H9          1.1592    3.1723    0.0044 H         1 <0>         0.1863
     34 H10        -0.9587    1.9274    0.0138 H         1 <0>         0.2035
     35 H11        -2.9433    0.1123   -0.8603 H         1 <0>         0.1410
     36 H12        -1.4553    0.3138   -1.8269 H         1 <0>         0.0913
     37 H13        -3.3361   -1.6815   -2.2947 H         1 <0>         0.1312
     38 H14        -1.6031   -1.8369   -2.7256 H         1 <0>         0.0987
     39 H15        -3.0379   -2.8348   -0.1989 H         1 <0>         0.1472
     40 H16        -1.8659   -3.7140   -1.2364 H         1 <0>         0.1168
     41 H17        -0.7373   -3.7528    1.4461 H         1 <0>         0.0889
     42 H18        -0.2794   -2.1452    2.0578 H         1 <0>         0.0612
     43 H19        -2.4023   -2.8461    2.8992 H         1 <0>         0.2356
     44 H20         3.5832    2.9905   -0.0171 H         1 <0>         0.2910
     45 N4          1.1322   -0.7541   -0.0136 N.ar      1 <0>        -0.1227
     46 H21         1.1070   -1.7805   -0.0182 H         1 <0>         0.3290
@<TRIPOS>BOND
     1    1    6 ar
     2    1    2 ar
     3    1   26 1
     4    2    3 ar
     5    2   27 1
     6    3    4 ar
     7    3   28 1
     8    4    5 ar
     9    4    7 1
    10    5    6 ar
    11    5   29 1
    12    6   30 1
    13    7    8 1
    14    7   31 1
    15    7   32 1
    16    8    9 1
    17    8   16 2
    18    9   10 am
    19    9   25 2
    20   10   44 1
    21   10   11 1
    22   11   12 ar
    23   11   15 ar
    24   12   13 ar
    25   12   33 1
    26   13   14 ar
    27   13   34 1
    28   14   17 1
    29   14   45 ar
    30   15   45 ar
    31   15   16 1
    32   17   21 1
    33   17   18 1
    34   18   19 1
    35   18   35 1
    36   18   36 1
    37   19   20 1
    38   19   37 1
    39   19   38 1
    40   20   21 1
    41   20   39 1
    42   20   40 1
    43   21   22 1
    44   21   23 1
    45   23   24 1
    46   23   41 1
    47   23   42 1
    48   24   43 1
    49   45   46 1
@<TRIPOS>MOLECULE
ZINC02499743
   46    49     0     0     0
SMALL
USER_CHARGES

@<TRIPOS>ATOM
      1 C1          7.1446   -1.6805    3.9486 C.ar      1 <0>        -0.1035
      2 C2          6.3145   -2.5745    3.2988 C.ar      1 <0>        -0.1184
      3 C3          5.9096   -2.3241    2.0010 C.ar      1 <0>        -0.1077
      4 C4          6.3347   -1.1793    1.3531 C.ar      1 <0>        -0.1154
      5 C5          7.1692   -0.2878    2.0011 C.ar      1 <0>        -0.1261
      6 C6          7.5705   -0.5362    3.3005 C.ar      1 <0>        -0.1097
      7 C7          5.8934   -0.9062   -0.0617 C.3       1 <0>        -0.0861
      8 C8          4.6102   -0.1163   -0.0439 C.ar      1 <0>        -0.0160
      9 C9          4.6577    1.2854   -0.0335 C.ar      1 <0>         0.1438
     10 N1          3.5445    1.9913   -0.0214 N.ar      1 <0>        -0.1046
     11 C10         2.3639    1.3648   -0.0146 C.ar      1 <0>        -0.0223
     12 C11         1.1551    2.0923    0.0002 C.ar      1 <0>         0.0493
     13 C12        -0.0170    1.3988    0.0099 C.ar      1 <0>        -0.1828
     14 C13         0.0021   -0.0041    0.0008 C.ar      1 <0>         0.2025
     15 C14         2.3157   -0.0499   -0.0221 C.ar      1 <0>         0.0187
     16 N2          3.4591   -0.7472   -0.0365 N.ar      1 <0>        -0.1302
     17 N3         -1.1981   -0.6980    0.0083 N.pl3     1 <0>        -0.1531
     18 C15        -2.0130   -0.3568   -1.1723 C.3       1 <0>        -0.0803
     19 C16        -2.3162   -1.6751   -1.9148 C.3       1 <0>        -0.1834
     20 C17        -2.1382   -2.7483   -0.8088 C.3       1 <0>        -0.1531
     21 C18        -0.9659   -2.1580    0.0141 C.3       1 <0>        -0.0677
     22 H1         -0.0132   -2.3927   -0.4607 H         1 <0>         0.0813
     23 C19        -0.9959   -2.6966    1.4459 C.3       1 <0>         0.0068
     24 O1         -2.3067   -2.5302    1.9899 O.3       1 <0>        -0.3369
     25 O2          5.8571    1.9188   -0.0400 O.3       1 <0>        -0.1965
     26 H2          7.4603   -1.8759    4.9628 H         1 <0>         0.1470
     27 H3          5.9817   -3.4686    3.8052 H         1 <0>         0.1431
     28 H4          5.2609   -3.0226    1.4933 H         1 <0>         0.1343
     29 H5          7.5049    0.6044    1.4935 H         1 <0>         0.1218
     30 H6          8.2188    0.1625    3.8083 H         1 <0>         0.1474
     31 H7          5.7314   -1.8510   -0.5805 H         1 <0>         0.1397
     32 H8          6.6643   -0.3351   -0.5789 H         1 <0>         0.1069
     33 H9          1.1592    3.1723    0.0049 H         1 <0>         0.1999
     34 H10        -0.9587    1.9274    0.0184 H         1 <0>         0.2017
     35 H11        -2.9442    0.1137   -0.8566 H         1 <0>         0.1412
     36 H12        -1.4571    0.3167   -1.8244 H         1 <0>         0.0941
     37 H13        -3.3384   -1.6778   -2.2935 H         1 <0>         0.1308
     38 H14        -1.6058   -1.8326   -2.7263 H         1 <0>         0.0987
     39 H15        -3.0381   -2.8345   -0.1998 H         1 <0>         0.1466
     40 H16        -1.8672   -3.7120   -1.2399 H         1 <0>         0.1158
     41 H17        -0.7359   -3.7551    1.4414 H         1 <0>         0.0874
     42 H18        -0.2773   -2.1485    2.0552 H         1 <0>         0.0621
     43 H19        -2.3994   -2.8507    2.8977 H         1 <0>         0.2350
     44 H20         6.5921    1.2408   -0.0490 H         1 <0>         0.2659
     45 N4          1.1322   -0.7541   -0.0154 N.ar      1 <0>        -0.1473
     46 H21         1.1070   -1.7805   -0.0216 H         1 <0>         0.3192
@<TRIPOS>BOND
     1    1    6 ar
     2    1    2 ar
     3    1   26 1
     4    2    3 ar
     5    2   27 1
     6    3    4 ar
     7    3   28 1
     8    4    5 ar
     9    4    7 1
    10    5    6 ar
    11    5   29 1
    12    6   30 1
    13    7    8 1
    14    7   31 1
    15    7   32 1
    16    8    9 ar
    17    8   16 ar
    18    9   10 ar
    19    9   25 1
    20   10   11 ar
    21   11   12 ar
    22   11   15 ar
    23   12   13 ar
    24   12   33 1
    25   13   14 ar
    26   13   34 1
    27   14   17 1
    28   14   45 ar
    29   15   45 ar
    30   15   16 ar
    31   17   21 1
    32   17   18 1
    33   18   19 1
    34   18   35 1
    35   18   36 1
    36   19   20 1
    37   19   37 1
    38   19   38 1
    39   20   21 1
    40   20   39 1
    41   20   40 1
    42   21   22 1
    43   21   23 1
    44   23   24 1
    45   23   41 1
    46   23   42 1
    47   24   43 1
    48   25   44 1
    49   45   46 1
@<TRIPOS>MOLECULE
ZINC02501815
   38    40     0     0     0
SMALL
USER_CHARGES

@<TRIPOS>ATOM
      1 C1        -13.8175   -0.9694    0.0939 C.3       1 <0>        -0.2540
      2 C2        -12.8013   -2.0761   -0.0231 C.2       1 <0>         0.2694
      3 O1        -13.1679   -3.2279   -0.1232 O.2       1 <0>        -0.2939
      4 C3        -11.3672   -1.7600   -0.0160 C.ar      1 <0>        -0.1963
      5 C4        -10.4202   -2.7917   -0.0083 C.ar      1 <0>        -0.0298
      6 C5         -9.0825   -2.4911   -0.0022 C.ar      1 <0>        -0.1714
      7 C6         -8.6654   -1.1643   -0.0037 C.ar      1 <0>         0.1226
      8 C7         -9.6017   -0.1359   -0.0057 C.ar      1 <0>        -0.2361
      9 C8        -10.9418   -0.4258   -0.0176 C.ar      1 <0>        -0.0493
     10 O2         -7.3405   -0.8722    0.0024 O.3       1 <0>        -0.2094
     11 C9         -6.9811    0.5108    0.0005 C.3       1 <0>         0.0058
     12 C10        -5.4567    0.6416    0.0080 C.3       1 <0>        -0.3028
     13 S1         -5.0005    2.3973    0.0055 S.3       1 <0>         0.2832
     14 C11        -3.2385    2.3798    0.0148 C.2       1 <0>        -0.1429
     15 N1         -2.4698    3.4551    0.0310 N.2       1 <0>        -0.1220
     16 C12        -1.1853    3.0514    0.0240 C.ar      1 <0>        -0.2141
     17 C13         0.0591    3.6974    0.0186 C.ar      1 <0>         0.2229
     18 N2          1.1757    2.9618    0.0174 N.ar      1 <0>        -0.2603
     19 C14         1.1431    1.6547    0.0210 C.ar      1 <0>         0.0628
     20 N3         -0.0106    0.9643    0.0216 N.ar      1 <0>        -0.2488
     21 H1         -2.8260    0.3400    0.0260 H         1 <0>         0.2650
     22 C15        -1.2089    1.6381    0.0223 C.ar      1 <0>         0.0497
     23 N4         -2.4848    1.2800    0.0218 N.pl3     1 <0>        -0.1622
     24 N5          0.1303    5.0706    0.0144 N.pl3     1 <0>        -0.2771
     25 H2        -13.3501   -0.0854    0.0839 H         1 <0>         0.0791
     26 H3        -14.5114   -1.0230   -0.7449 H         1 <0>         0.1084
     27 H4        -14.3679   -1.0789    1.0284 H         1 <0>         0.1088
     28 H5        -10.7432   -3.8223   -0.0075 H         1 <0>         0.1598
     29 H6         -8.3514   -3.2860    0.0034 H         1 <0>         0.1496
     30 H7         -9.2726    0.8927   -0.0024 H         1 <0>         0.1376
     31 H8        -11.6681    0.3736   -0.0239 H         1 <0>         0.1388
     32 H9         -7.3917    0.9942    0.8870 H         1 <0>         0.0928
     33 H10        -7.3824    0.9892   -0.8929 H         1 <0>         0.0936
     34 H11        -5.0461    0.1583   -0.8785 H         1 <0>         0.1182
     35 H12        -5.0554    0.1631    0.9014 H         1 <0>         0.1172
     36 H13         2.0759    1.1104    0.0199 H         1 <0>         0.2045
     37 H14         0.6207    5.3814    0.8286 H         1 <0>         0.1824
     38 H15        -0.6835    5.5985    0.0152 H         1 <0>         0.1982
@<TRIPOS>BOND
     1    1    2 1
     2    1   25 1
     3    1   26 1
     4    1   27 1
     5    2    3 2
     6    2    4 1
     7    4    9 ar
     8    4    5 ar
     9    5    6 ar
    10    5   28 1
    11    6    7 ar
    12    6   29 1
    13    7    8 ar
    14    7   10 1
    15    8    9 ar
    16    8   30 1
    17    9   31 1
    18   10   11 1
    19   11   12 1
    20   11   32 1
    21   11   33 1
    22   12   13 1
    23   12   34 1
    24   12   35 1
    25   13   14 1
    26   14   23 1
    27   14   15 2
    28   15   16 1
    29   16   22 ar
    30   16   17 ar
    31   17   18 ar
    32   17   24 1
    33   18   19 ar
    34   19   36 1
    35   19   20 ar
    36   20   22 ar
    37   21   23 1
    38   22   23 1
    39   24   38 1
    40   24   37 1
@<TRIPOS>MOLECULE
ZINC02503176
   41    43     0     0     0
SMALL
USER_CHARGES

@<TRIPOS>ATOM
      1 C1         -1.5884   -0.2684   -3.0191 C.3       1 <0>        -0.2054
      2 C2         -2.5232    0.8499   -2.5537 C.3       1 <0>        -0.1144
      3 C3         -3.1033    0.4928   -1.2094 C.2       1 <0>        -0.0683
      4 C4         -4.2551   -0.1941   -1.1028 C.2       1 <0>        -0.3167
      5 S1         -4.4818   -0.3436    0.6572 S.3       1 <0>         0.4958
      6 C5         -3.0650    0.4888    1.2030 C.2       1 <0>        -0.1459
      7 C6         -2.4469    0.8736    0.0184 C.2       1 <0>        -0.2285
      8 C7         -1.1873    1.6238    0.0165 C.2       1 <0>         0.3620
      9 O1         -1.2038    2.8408    0.0232 O.2       1 <0>        -0.3575
     10 N1         -0.0111    0.9658    0.0074 N.am      1 <0>        -0.4276
     11 N2         -2.6495    0.7181    2.5040 N.am      1 <0>        -0.2509
     12 C8         -3.3870    0.2644    3.5368 C.2       1 <0>         0.3578
     13 O2         -4.4176   -0.3464    3.3262 O.2       1 <0>        -0.3311
     14 C9         -2.9453    0.5081    4.9200 C.2       1 <0>         0.0031
     15 C10        -3.7061    0.0407    5.9387 C.2       1 <0>        -0.1289
     16 C11        -3.2763    0.2767    7.3188 C.ar      1 <0>        -0.0161
     17 C12        -4.0128   -0.1778    8.4118 C.ar      1 <0>        -0.1169
     18 C13        -3.5578    0.0742    9.6891 C.ar      1 <0>        -0.0939
     19 C14        -2.3772    0.7735    9.8958 C.ar      1 <0>        -0.1338
     20 C15        -1.6327    1.2319    8.8281 C.ar      1 <0>        -0.0547
     21 C16        -2.0731    0.9899    7.5305 C.ar      1 <0>        -0.1566
     22 C17        -1.3239    1.4526    6.3529 C.2       1 <0>         0.3707
     23 O3         -0.2845    2.0692    6.4893 O.2       1 <0>        -0.2878
     24 O4         -1.7969    1.1826    5.1241 O.3       1 <0>        -0.1867
     25 C18        -5.1403   -0.7122   -2.2068 C.3       1 <0>        -0.1238
     26 H1         -0.7818   -0.3919   -2.2965 H         1 <0>         0.0709
     27 H2         -2.1487   -1.1998   -3.1009 H         1 <0>         0.0744
     28 H3         -1.1689   -0.0101   -3.9914 H         1 <0>         0.0753
     29 H4         -3.3299    0.9734   -3.2762 H         1 <0>         0.0912
     30 H5         -1.9629    1.7813   -2.4718 H         1 <0>         0.1018
     31 H6          0.0021   -0.0041    0.0020 H         1 <0>         0.2188
     32 H7          0.8223    1.4622    0.0021 H         1 <0>         0.2285
     33 H8         -1.8277    1.2052    2.6719 H         1 <0>         0.2646
     34 H9         -4.6190   -0.4993    5.7355 H         1 <0>         0.1808
     35 H10        -4.9327   -0.7227    8.2595 H         1 <0>         0.1442
     36 H11        -4.1264   -0.2767   10.5377 H         1 <0>         0.1388
     37 H12        -2.0369    0.9608   10.9036 H         1 <0>         0.1413
     38 H13        -0.7146    1.7746    8.9985 H         1 <0>         0.1593
     39 H14        -4.8279   -1.7200   -2.4803 H         1 <0>         0.0874
     40 H15        -6.1747   -0.7330   -1.8637 H         1 <0>         0.0863
     41 H16        -5.0587   -0.0583   -3.0751 H         1 <0>         0.0924
@<TRIPOS>BOND
     1    1    2 1
     2    1   26 1
     3    1   27 1
     4    1   28 1
     5    2    3 1
     6    2   29 1
     7    2   30 1
     8    3    7 1
     9    3    4 2
    10    4    5 1
    11    4   25 1
    12    5    6 1
    13    6    7 2
    14    6   11 1
    15    7    8 1
    16    8    9 2
    17    8   10 am
    18   10   31 1
    19   10   32 1
    20   11   12 am
    21   11   33 1
    22   12   13 2
    23   12   14 1
    24   14   24 1
    25   14   15 2
    26   15   16 1
    27   15   34 1
    28   16   21 ar
    29   16   17 ar
    30   17   18 ar
    31   17   35 1
    32   18   19 ar
    33   18   36 1
    34   19   20 ar
    35   19   37 1
    36   20   21 ar
    37   20   38 1
    38   21   22 1
    39   22   23 2
    40   22   24 1
    41   25   39 1
    42   25   40 1
    43   25   41 1
@<TRIPOS>MOLECULE
ZINC02503741
   39    41     0     0     0
SMALL
USER_CHARGES

@<TRIPOS>ATOM
      1 C1          0.1934   -2.8445    0.1367 C.ar      1 <0>        -0.0972
      2 C2          0.2717   -4.2178    0.2203 C.ar      1 <0>        -0.1231
      3 C3         -0.6953   -4.9318    0.9146 C.ar      1 <0>         0.0359
      4 C4         -1.7492   -4.2597    1.5359 C.ar      1 <0>        -0.0055
      5 C5         -1.8300   -2.8833    1.4601 C.ar      1 <0>        -0.0490
      6 C6         -0.8556   -2.1655    0.7608 C.ar      1 <0>        -0.1348
      7 C7         -0.9384   -0.6945    0.6768 C.2       1 <0>         0.3579
      8 O1         -1.8550   -0.1053    1.2164 O.2       1 <0>        -0.3489
      9 N1          0.0021   -0.0041    0.0020 N.am      1 <0>        -0.3238
     10 C8         -0.0212    1.3942    0.0036 C.ar      1 <0>         0.0760
     11 C9          1.1702    2.1098   -0.0016 C.ar      1 <0>        -0.1210
     12 C10         1.1485    3.4912   -0.0000 C.ar      1 <0>        -0.0738
     13 C11        -0.0568    4.1662    0.0068 C.ar      1 <0>        -0.1152
     14 C12        -1.2522    3.4569    0.0120 C.ar      1 <0>        -0.1784
     15 C13        -1.2336    2.0684    0.0046 C.ar      1 <0>        -0.0780
     16 S1         -2.7892    4.3184    0.0201 S.3       1 <0>         0.1935
     17 C14        -2.3114    6.0683    0.0191 C.3       1 <0>        -0.2775
     18 C15        -3.5686    6.9403    0.0258 C.3       1 <0>         0.0159
     19 O2         -3.1922    8.3188    0.0249 O.3       1 <0>        -0.3500
     20 N2          2.4196    4.2496   -0.0051 N.pl3     1 <0>         0.5489
     21 O3          3.4831    3.6558   -0.0107 O.2       1 <0>        -0.3556
     22 O4          2.4021    5.4675   -0.0037 O.3       1 <0>        -0.3507
     23 O5         -2.5541   -5.1799    2.1440 O.3       1 <0>        -0.2002
     24 C16        -2.2114   -6.4440    1.5459 C.3       1 <0>         0.1061
     25 O6         -0.8426   -6.2693    1.1355 O.3       1 <0>        -0.2022
     26 H1          0.9454   -2.2929   -0.4079 H         1 <0>         0.1336
     27 H2          1.0859   -4.7407   -0.2594 H         1 <0>         0.1507
     28 H3         -2.6447   -2.3621    1.9408 H         1 <0>         0.1721
     29 H4          0.6951   -0.4770   -0.4847 H         1 <0>         0.2409
     30 H5          2.1143    1.5853   -0.0066 H         1 <0>         0.1650
     31 H6         -0.0703    5.2462    0.0084 H         1 <0>         0.1689
     32 H7         -2.1608    1.5146    0.0041 H         1 <0>         0.1859
     33 H8         -1.7158    6.2829    0.9063 H         1 <0>         0.1215
     34 H9         -1.7243    6.2842   -0.8736 H         1 <0>         0.1195
     35 H10        -4.1643    6.7258   -0.8615 H         1 <0>         0.0710
     36 H11        -4.1557    6.7245    0.9184 H         1 <0>         0.0726
     37 H12        -3.9408    8.9309    0.0290 H         1 <0>         0.2193
     38 H13        -2.8471   -6.6443    0.6834 H         1 <0>         0.0930
     39 H14        -2.2922   -7.2480    2.2773 H         1 <0>         0.1367
@<TRIPOS>BOND
     1    1    6 ar
     2    1    2 ar
     3    1   26 1
     4    2    3 ar
     5    2   27 1
     6    3   25 1
     7    3    4 ar
     8    4    5 ar
     9    4   23 1
    10    5    6 ar
    11    5   28 1
    12    6    7 1
    13    7    8 2
    14    7    9 am
    15    9   10 1
    16    9   29 1
    17   10   15 ar
    18   10   11 ar
    19   11   12 ar
    20   11   30 1
    21   12   13 ar
    22   12   20 1
    23   13   14 ar
    24   13   31 1
    25   14   15 ar
    26   14   16 1
    27   15   32 1
    28   16   17 1
    29   17   18 1
    30   17   33 1
    31   17   34 1
    32   18   19 1
    33   18   35 1
    34   18   36 1
    35   19   37 1
    36   20   21 2
    37   20   22 1
    38   23   24 1
    39   24   25 1
    40   24   38 1
    41   24   39 1
@<TRIPOS>MOLECULE
ZINC02551044
   39    40     0     0     0
SMALL
USER_CHARGES

@<TRIPOS>ATOM
      1 C1          1.1445    2.4365    0.2895 C.2       1 <0>        -0.3410
      2 C2          0.0987    1.6409    0.1659 C.2       1 <0>         0.0053
      3 N1         -1.1840    2.1741    0.1712 N.pl3     1 <0>        -0.2831
      4 N2         -2.2939    1.3302    0.0343 N.pl3     1 <0>        -0.2066
      5 C3         -3.5687    1.8600    0.0395 C.2       1 <0>         0.1566
      6 C4         -3.7881    3.2075    0.2860 C.2       1 <0>        -0.3674
      7 C5         -5.1136    3.6662    0.2688 C.2       1 <0>         0.3170
      8 O1         -5.3510    4.8455    0.4768 O.2       1 <0>        -0.3564
      9 N3         -6.1233    2.8129    0.0302 N.am      1 <0>        -0.1139
     10 N4         -5.9418    1.5639   -0.1949 N.2       1 <0>         0.0129
     11 C6         -4.7457    1.0182   -0.2095 C.2       1 <0>        -0.1715
     12 C7         -4.5877   -0.4260   -0.4741 C.2       1 <0>         0.3801
     13 O2         -3.4910   -0.9435   -0.3870 O.2       1 <0>        -0.3996
     14 N5         -5.6591   -1.1704   -0.8121 N.am      1 <0>        -0.2454
     15 N6         -5.5092   -2.5405   -1.0632 N.pl3     1 <0>        -0.2787
     16 C8         -6.6135   -3.3078   -1.4116 C.2       1 <0>         0.0002
     17 C9         -6.4723   -4.5986   -1.6481 C.2       1 <0>        -0.3379
     18 C10        -7.4312    3.3093    0.0275 C.ar      1 <0>         0.0381
     19 C11        -7.8765    4.1035    1.0766 C.ar      1 <0>        -0.0883
     20 C12        -9.1665    4.5965    1.0681 C.ar      1 <0>        -0.1214
     21 C13       -10.0183    4.2907    0.0224 C.ar      1 <0>        -0.1177
     22 C14        -9.5800    3.4957   -1.0208 C.ar      1 <0>        -0.1264
     23 C15        -8.2894    3.0044   -1.0215 C.ar      1 <0>        -0.1148
     24 H1          2.1420    2.0225    0.2809 H         1 <0>         0.1336
     25 H2          1.0029    3.5016    0.3992 H         1 <0>         0.1154
     26 H3          0.2404    0.5759    0.0563 H         1 <0>         0.1463
     27 H4         -1.3113    3.1306    0.2697 H         1 <0>         0.2632
     28 H5         -2.1667    0.3736   -0.0643 H         1 <0>         0.2964
     29 H6         -2.9665    3.8807    0.4809 H         1 <0>         0.1702
     30 H7         -6.5341   -0.7575   -0.8816 H         1 <0>         0.2655
     31 H8         -4.6342   -2.9534   -0.9937 H         1 <0>         0.2767
     32 H9         -7.5877   -2.8481   -1.4890 H         1 <0>         0.1396
     33 H10        -5.4981   -5.0583   -1.5707 H         1 <0>         0.1178
     34 H11        -7.3309   -5.1951   -1.9189 H         1 <0>         0.1329
     35 H12        -7.2131    4.3390    1.8957 H         1 <0>         0.1552
     36 H13        -9.5118    5.2180    1.8810 H         1 <0>         0.1395
     37 H14       -11.0281    4.6739    0.0204 H         1 <0>         0.1337
     38 H15       -10.2477    3.2590   -1.8360 H         1 <0>         0.1355
     39 H16        -7.9475    2.3842   -1.8368 H         1 <0>         0.1384
@<TRIPOS>BOND
     1    1    2 2
     2    1   24 1
     3    1   25 1
     4    2    3 1
     5    2   26 1
     6    3    4 1
     7    3   27 1
     8    4    5 1
     9    4   28 1
    10    5   11 1
    11    5    6 2
    12    6    7 1
    13    6   29 1
    14    7    8 2
    15    7    9 am
    16    9   10 1
    17    9   18 1
    18   10   11 2
    19   11   12 1
    20   12   13 2
    21   12   14 am
    22   14   15 1
    23   14   30 1
    24   15   16 1
    25   15   31 1
    26   16   17 2
    27   16   32 1
    28   17   33 1
    29   17   34 1
    30   18   23 ar
    31   18   19 ar
    32   19   20 ar
    33   19   35 1
    34   20   21 ar
    35   20   36 1
    36   21   22 ar
    37   21   37 1
    38   22   23 ar
    39   22   38 1
    40   23   39 1
@<TRIPOS>MOLECULE
ZINC02565335
   42    44     0     0     0
SMALL
USER_CHARGES

@<TRIPOS>ATOM
      1 C1         -0.0126    1.0758    0.0080 C.ar      1 <0>        -0.1276
      2 C2         -1.2214    1.7484    0.0174 C.ar      1 <0>        -0.1250
      3 C3         -1.2455    3.1317    0.0305 C.ar      1 <0>        -0.0987
      4 C4         -0.0641    3.8427    0.0233 C.ar      1 <0>        -0.0750
      5 C5          1.1573    3.1750    0.0081 C.ar      1 <0>        -0.0444
      6 C6          1.1740    1.7789    0.0004 C.ar      1 <0>        -0.1048
      7 C7          2.2620    4.1658    0.0023 C.ar      1 <0>        -0.0326
      8 C8          3.6480    3.9977   -0.0128 C.ar      1 <0>        -0.1052
      9 C9          4.4757    5.1009   -0.0150 C.ar      1 <0>        -0.1241
     10 C10         3.9383    6.3757   -0.0028 C.ar      1 <0>        -0.1236
     11 C11         2.5659    6.5498    0.0115 C.ar      1 <0>        -0.1058
     12 C12         1.7308    5.4524    0.0140 C.ar      1 <0>        -0.0827
     13 C13         0.2274    5.3234    0.0280 C.3       1 <0>        -0.0312
     14 C14        -0.3450    5.9689    1.2916 C.3       1 <0>         0.0308
     15 O1         -1.7956    5.9420    1.2343 O.3       1 <0>        -0.2823
     16 C15        -2.4585    6.4754    2.2778 C.2       1 <0>         0.4042
     17 O2         -1.8418    6.9504    3.2108 O.2       1 <0>        -0.4242
     18 N1         -3.8063    6.4825    2.2874 N.am      1 <0>        -0.3740
     19 C16        -4.5276    7.0629    3.4228 C.3       1 <0>        -0.0202
     20 C17        -6.0342    6.9438    3.1845 C.3       1 <0>         0.0285
     21 H1         -6.3038    5.8927    3.0817 H         1 <0>         0.1388
     22 C18        -6.7876    7.5499    4.3703 C.3       1 <0>        -0.0302
     23 O3         -8.1904    7.3352    4.2034 O.3       1 <0>        -0.3387
     24 O4         -6.3843    7.6445    1.9893 O.3       1 <0>        -0.3323
     25 H2          0.0021   -0.0041    0.0020 H         1 <0>         0.1310
     26 H3         -2.1476    1.1929    0.0184 H         1 <0>         0.1318
     27 H4         -2.1902    3.6549    0.0423 H         1 <0>         0.1396
     28 H5          2.1154    1.2499   -0.0111 H         1 <0>         0.1301
     29 H6          4.0717    3.0043   -0.0216 H         1 <0>         0.1321
     30 H7          5.5476    4.9691   -0.0265 H         1 <0>         0.1323
     31 H8          4.5911    7.2361   -0.0048 H         1 <0>         0.1332
     32 H9          2.1483    7.5457    0.0209 H         1 <0>         0.1319
     33 H10        -0.1978    5.7924   -0.8593 H         1 <0>         0.1267
     34 H11        -0.0057    5.4161    2.1676 H         1 <0>         0.1049
     35 H12        -0.0031    7.0017    1.3588 H         1 <0>         0.0943
     36 H13        -4.2986    6.1034    1.5426 H         1 <0>         0.2420
     37 H14        -4.2605    6.5284    4.3345 H         1 <0>         0.1016
     38 H15        -4.2580    8.1140    3.5256 H         1 <0>         0.0934
     39 H16        -6.4546    7.0752    5.2933 H         1 <0>         0.0681
     40 H17        -6.5871    8.6202    4.4194 H         1 <0>         0.0618
     41 H18        -8.7313    7.6942    4.9201 H         1 <0>         0.2136
     42 H19        -6.1724    8.5877    2.0100 H         1 <0>         0.2119
@<TRIPOS>BOND
     1    1    6 ar
     2    1    2 ar
     3    1   25 1
     4    2    3 ar
     5    2   26 1
     6    3    4 ar
     7    3   27 1
     8    4   13 1
     9    4    5 ar
    10    5    6 ar
    11    5    7 1
    12    6   28 1
    13    7   12 ar
    14    7    8 ar
    15    8    9 ar
    16    8   29 1
    17    9   10 ar
    18    9   30 1
    19   10   11 ar
    20   10   31 1
    21   11   12 ar
    22   11   32 1
    23   12   13 1
    24   13   14 1
    25   13   33 1
    26   14   15 1
    27   14   34 1
    28   14   35 1
    29   15   16 1
    30   16   17 2
    31   16   18 am
    32   18   19 1
    33   18   36 1
    34   19   20 1
    35   19   37 1
    36   19   38 1
    37   20   21 1
    38   20   22 1
    39   20   24 1
    40   22   23 1
    41   22   39 1
    42   22   40 1
    43   23   41 1
    44   24   42 1
@<TRIPOS>MOLECULE
ZINC02568372
   38    40     0     0     0
SMALL
USER_CHARGES

@<TRIPOS>ATOM
      1 C1         -0.0127    1.0858    0.0080 C.3       1 <0>        -0.0676
      2 O1         -0.6816    1.5467    1.1837 O.3       1 <0>        -0.1955
      3 C2         -0.1482    1.1817    2.3808 C.ar      1 <0>         0.0763
      4 C3          0.9826    0.4050    2.4034 C.ar      1 <0>        -0.1430
      5 C4          1.5637    0.0073    3.6328 C.ar      1 <0>        -0.0208
      6 C5          0.9129    0.4557    4.8075 C.ar      1 <0>        -0.2334
      7 C6         -0.2190    1.2332    4.7795 C.ar      1 <0>        -0.1609
      8 C7         -0.7603    1.6105    3.5613 C.ar      1 <0>         0.0996
      9 O2         -1.8776    2.3846    3.5151 O.3       1 <0>        -0.1867
     10 C8         -2.4438    2.7819    4.7655 C.3       1 <0>        -0.0672
     11 S1          1.9277   -0.2406    6.0893 S.3       1 <0>         0.2559
     12 C9          3.1080   -1.0529    5.0204 C.2       1 <0>        -0.0924
     13 N1          2.6580   -0.7447    3.8238 N.2       1 <0>        -0.1778
     14 C10         4.2878   -1.8640    5.3876 C.ar      1 <0>         0.0126
     15 C11         4.6012   -2.0716    6.7328 C.ar      1 <0>        -0.1158
     16 C12         5.6971   -2.8310    7.0750 C.ar      1 <0>        -0.1123
     17 C13         6.5021   -3.3851    6.0766 C.ar      1 <0>        -0.1103
     18 C14         6.1915   -3.1729    4.7311 C.ar      1 <0>        -0.0719
     19 C15         5.0925   -2.4179    4.3893 C.ar      1 <0>        -0.0948
     20 C16         7.6822   -4.1952    6.4437 C.2       1 <0>         0.3462
     21 O3          8.3828   -4.6770    5.5749 O.2       1 <0>        -0.3464
     22 N2          7.9817   -4.3998    7.7417 N.am      1 <0>        -0.3290
     23 N3          9.0726   -5.1487    8.0810 N.3       1 <0>        -0.2106
     24 H1          0.0021   -0.0041    0.0020 H         1 <0>         0.0702
     25 H2          1.0099    1.4631    0.0003 H         1 <0>         0.0699
     26 H3         -0.5399    1.4469   -0.8751 H         1 <0>         0.1121
     27 H4          1.4350    0.0936    1.4735 H         1 <0>         0.1566
     28 H5         -0.6818    1.5522    5.7017 H         1 <0>         0.1496
     29 H6         -3.3277    3.3938    4.5860 H         1 <0>         0.1137
     30 H7         -2.7246    1.8959    5.3350 H         1 <0>         0.0694
     31 H8         -1.7108    3.3589    5.3293 H         1 <0>         0.0692
     32 H9          3.9815   -1.6395    7.5046 H         1 <0>         0.1415
     33 H10         5.9371   -2.9949    8.1151 H         1 <0>         0.1270
     34 H11         6.8139   -3.6009    3.9592 H         1 <0>         0.1649
     35 H12         4.8526   -2.2536    3.3492 H         1 <0>         0.1611
     36 H13         7.4227   -4.0154    8.4349 H         1 <0>         0.2228
     37 H14         9.9112   -4.7771    7.6607 H         1 <0>         0.1621
     38 H15         9.1688   -5.2139    9.0833 H         1 <0>         0.1555
@<TRIPOS>BOND
     1    1    2 1
     2    1   24 1
     3    1   25 1
     4    1   26 1
     5    2    3 1
     6    3    8 ar
     7    3    4 ar
     8    4    5 ar
     9    4   27 1
    10    5   13 1
    11    5    6 ar
    12    6    7 ar
    13    6   11 1
    14    7    8 ar
    15    7   28 1
    16    8    9 1
    17    9   10 1
    18   10   29 1
    19   10   30 1
    20   10   31 1
    21   11   12 1
    22   12   13 2
    23   12   14 1
    24   14   19 ar
    25   14   15 ar
    26   15   16 ar
    27   15   32 1
    28   16   17 ar
    29   16   33 1
    30   17   18 ar
    31   17   20 1
    32   18   19 ar
    33   18   34 1
    34   19   35 1
    35   20   21 2
    36   20   22 am
    37   22   23 1
    38   22   36 1
    39   23   37 1
    40   23   38 1
@<TRIPOS>MOLECULE
ZINC02569032
   42    45     0     0     0
SMALL
USER_CHARGES

@<TRIPOS>ATOM
      1 C1         -6.5360    6.5937   -1.5679 C.3       1 <0>        -0.2066
      2 C2         -6.0488    6.4351   -0.1262 C.3       1 <0>        -0.1271
      3 C3         -4.7826    5.6181   -0.1109 C.ar      1 <0>        -0.0689
      4 C4         -3.5495    6.2584   -0.2138 C.ar      1 <0>        -0.1103
      5 C5         -2.3871    5.5507   -0.2032 C.ar      1 <0>        -0.1027
      6 C6         -2.4249    4.1487   -0.0865 C.ar      1 <0>         0.0224
      7 C7         -3.6826    3.5027    0.0178 C.ar      1 <0>        -0.0489
      8 C8         -4.8581    4.2616    0.0040 C.ar      1 <0>        -0.1096
      9 C9         -3.7150    2.0451    0.1387 C.ar      1 <0>        -0.0717
     10 C10        -2.4982    1.3787    0.1374 C.ar      1 <0>        -0.1542
     11 C11        -1.3087    2.1163    0.0339 C.ar      1 <0>         0.0539
     12 N1         -1.3022    3.4286   -0.0736 N.ar      1 <0>        -0.1402
     13 C12        -0.0155    1.3926    0.0396 C.ar      1 <0>        -0.0403
     14 C13         0.0047   -0.0018    0.0470 C.ar      1 <0>        -0.1147
     15 C14         1.2087   -0.6744    0.0471 C.ar      1 <0>        -0.1186
     16 C15         2.4027    0.0322    0.0392 C.ar      1 <0>         0.0148
     17 C16         2.3884    1.4265    0.0313 C.ar      1 <0>        -0.0023
     18 C17         1.1835    2.1046    0.0317 C.ar      1 <0>        -0.0710
     19 O1          3.6777    1.8756    0.0245 O.3       1 <0>        -0.2042
     20 C18         4.4748    0.7484   -0.3846 C.3       1 <0>         0.1066
     21 O2          3.7006   -0.3897    0.0375 O.3       1 <0>        -0.2070
     22 C19        -4.9941    1.3108    0.2510 C.2       1 <0>         0.3534
     23 O3         -6.0391    1.9228    0.3542 O.2       1 <0>        -0.3482
     24 N2         -5.0007   -0.0368    0.2390 N.am      1 <0>        -0.3243
     25 N3         -6.1820   -0.7150    0.3428 N.3       1 <0>        -0.2101
     26 H1         -5.7704    7.0990   -2.1566 H         1 <0>         0.0744
     27 H2         -6.7329    5.6104   -1.9951 H         1 <0>         0.0805
     28 H3         -7.4519    7.1847   -1.5790 H         1 <0>         0.0746
     29 H4         -6.8144    5.9298    0.4625 H         1 <0>         0.0962
     30 H5         -5.8520    7.4184    0.3010 H         1 <0>         0.0863
     31 H6         -3.5155    7.3341   -0.3039 H         1 <0>         0.1346
     32 H7         -1.4397    6.0628   -0.2843 H         1 <0>         0.1487
     33 H8         -5.8194    3.7758    0.0831 H         1 <0>         0.1879
     34 H9         -2.4663    0.3023    0.2200 H         1 <0>         0.1328
     35 H10        -0.9227   -0.5551    0.0532 H         1 <0>         0.1333
     36 H11         1.2222   -1.7543    0.0536 H         1 <0>         0.1445
     37 H12         1.1709    3.1845    0.0263 H         1 <0>         0.1698
     38 H13         4.6041    0.7435   -1.4668 H         1 <0>         0.0894
     39 H14         5.4421    0.7611    0.1177 H         1 <0>         0.1320
     40 H15        -4.1667   -0.5253    0.1567 H         1 <0>         0.2236
     41 H16        -6.8268   -0.4305   -0.3792 H         1 <0>         0.1633
     42 H17        -6.0297   -1.7122    0.3192 H         1 <0>         0.1579
@<TRIPOS>BOND
     1    1    2 1
     2    1   26 1
     3    1   27 1
     4    1   28 1
     5    2    3 1
     6    2   29 1
     7    2   30 1
     8    3    8 ar
     9    3    4 ar
    10    4    5 ar
    11    4   31 1
    12    5    6 ar
    13    5   32 1
    14    6   12 ar
    15    6    7 ar
    16    7    8 ar
    17    7    9 ar
    18    8   33 1
    19    9   10 ar
    20    9   22 1
    21   10   11 ar
    22   10   34 1
    23   11   12 ar
    24   11   13 1
    25   13   18 ar
    26   13   14 ar
    27   14   15 ar
    28   14   35 1
    29   15   16 ar
    30   15   36 1
    31   16   21 1
    32   16   17 ar
    33   17   18 ar
    34   17   19 1
    35   18   37 1
    36   19   20 1
    37   20   21 1
    38   20   38 1
    39   20   39 1
    40   22   23 2
    41   22   24 am
    42   24   25 1
    43   24   40 1
    44   25   41 1
    45   25   42 1
@<TRIPOS>MOLECULE
ZINC02571071
   44    46     0     0     0
SMALL
USER_CHARGES

@<TRIPOS>ATOM
      1 C1         -5.4261    8.1686    0.0730 C.3       1 <0>        -0.0688
      2 O1         -4.1670    8.8445    0.0705 O.3       1 <0>        -0.1922
      3 C2         -3.0499    8.0688    0.0608 C.ar      1 <0>         0.1031
      4 C3         -3.1657    6.6914    0.0539 C.ar      1 <0>        -0.1854
      5 C4         -2.0178    5.8952    0.0440 C.ar      1 <0>        -0.0585
      6 C5         -0.7554    6.4936    0.0468 C.ar      1 <0>        -0.2318
      7 C6         -0.6451    7.8716    0.0484 C.ar      1 <0>         0.1072
      8 C7         -1.7907    8.6628    0.0583 C.ar      1 <0>         0.0325
      9 O2         -1.6796   10.0172    0.0650 O.3       1 <0>        -0.2060
     10 C8         -1.6207   10.6569    1.3415 C.3       1 <0>        -0.0567
     11 O3          0.5835    8.4548    0.0459 O.3       1 <0>        -0.1911
     12 C9          1.7156    7.5828    0.0356 C.3       1 <0>        -0.0671
     13 C10        -2.1385    4.4240    0.0366 C.2       1 <0>         0.3505
     14 O4         -3.2376    3.9042    0.0391 O.2       1 <0>        -0.3682
     15 N1         -1.0303    3.6570    0.0270 N.am      1 <0>        -0.2722
     16 N2         -1.1449    2.2607    0.0199 N.pl3     1 <0>        -0.2123
     17 C11        -0.0181    1.4807    0.0102 C.2       1 <0>         0.1651
     18 C12         1.2614    1.9425    0.0004 C.2       1 <0>        -0.3968
     19 C13         2.1598    0.8516   -0.0140 C.2       1 <0>         0.3275
     20 O5          3.3738    0.9217   -0.0252 O.2       1 <0>        -0.2815
     21 C14         1.3512   -0.3999   -0.0130 C.ar      1 <0>        -0.1314
     22 C15         0.0021   -0.0041    0.0020 C.ar      1 <0>        -0.0661
     23 C16        -0.9941   -0.9636    0.0064 C.ar      1 <0>        -0.1007
     24 C17        -0.6556   -2.3132   -0.0055 C.ar      1 <0>        -0.1136
     25 C18         0.6667   -2.6988   -0.0202 C.ar      1 <0>        -0.1208
     26 C19         1.6771   -1.7406   -0.0240 C.ar      1 <0>        -0.0660
     27 H1         -5.5076    7.5489   -0.8199 H         1 <0>         0.0754
     28 H2         -5.4989    7.5393    0.9600 H         1 <0>         0.0718
     29 H3         -6.2323    8.9022    0.0810 H         1 <0>         0.1138
     30 H4         -4.1427    6.2311    0.0566 H         1 <0>         0.1661
     31 H5          0.1335    5.8803    0.0440 H         1 <0>         0.1335
     32 H6         -2.5291   10.4348    1.9014 H         1 <0>         0.0634
     33 H7         -0.7552   10.2893    1.8926 H         1 <0>         0.0627
     34 H8         -1.5330   11.7347    1.2040 H         1 <0>         0.1056
     35 H9          1.6940    6.9490    0.9221 H         1 <0>         0.0667
     36 H10         1.6857    6.9592   -0.8578 H         1 <0>         0.0704
     37 H11         2.6305    8.1753    0.0347 H         1 <0>         0.1176
     38 H12        -0.1534    4.0717    0.0249 H         1 <0>         0.2621
     39 H13        -2.0218    1.8460    0.0220 H         1 <0>         0.2824
     40 H14         1.5471    2.9840    0.0030 H         1 <0>         0.1512
     41 H15        -2.0322   -0.6660    0.0182 H         1 <0>         0.1319
     42 H16        -1.4336   -3.0622   -0.0026 H         1 <0>         0.1380
     43 H17         0.9209   -3.7484   -0.0284 H         1 <0>         0.1389
     44 H18         2.7129   -2.0459   -0.0359 H         1 <0>         0.1496
@<TRIPOS>BOND
     1    1    2 1
     2    1   27 1
     3    1   28 1
     4    1   29 1
     5    2    3 1
     6    3    8 ar
     7    3    4 ar
     8    4    5 ar
     9    4   30 1
    10    5    6 ar
    11    5   13 1
    12    6    7 ar
    13    6   31 1
    14    7    8 ar
    15    7   11 1
    16    8    9 1
    17    9   10 1
    18   10   32 1
    19   10   33 1
    20   10   34 1
    21   11   12 1
    22   12   35 1
    23   12   36 1
    24   12   37 1
    25   13   14 2
    26   13   15 am
    27   15   16 1
    28   15   38 1
    29   16   17 1
    30   16   39 1
    31   17   22 1
    32   17   18 2
    33   18   19 1
    34   18   40 1
    35   19   20 2
    36   19   21 1
    37   21   26 ar
    38   21   22 ar
    39   22   23 ar
    40   23   24 ar
    41   23   41 1
    42   24   25 ar
    43   24   42 1
    44   25   26 ar
    45   25   43 1
    46   26   44 1
@<TRIPOS>MOLECULE
ZINC02602352
   43    46     0     0     0
SMALL
USER_CHARGES

@<TRIPOS>ATOM
      1 C1         -4.1381   -2.5333   -4.6572 C.3       1 <0>        -0.2078
      2 C2         -3.1779   -2.3033   -3.4884 C.3       1 <0>        -0.1097
      3 H1         -2.4140   -3.0808   -3.4848 H         1 <0>         0.1001
      4 C3         -2.5131   -0.9309   -3.6290 C.3       1 <0>        -0.1553
      5 C4         -1.3775   -0.7966   -2.6128 C.3       1 <0>        -0.1011
      6 C5         -1.9195   -1.1285   -1.2280 C.2       1 <0>        -0.0650
      7 C6         -3.0690   -1.8224   -1.0788 C.2       1 <0>        -0.3237
      8 S1         -3.2849   -1.9692    0.6723 S.3       1 <0>         0.5068
      9 C7         -1.8649   -1.1287    1.2007 C.2       1 <0>        -0.1432
     10 C8         -1.2576   -0.7544    0.0100 C.2       1 <0>        -0.2329
     11 C9          0.0021   -0.0041    0.0020 C.2       1 <0>         0.3604
     12 O1          1.0642   -0.5982   -0.0113 O.2       1 <0>        -0.3587
     13 N1         -0.0162    1.3436    0.0094 N.am      1 <0>        -0.4291
     14 N2         -1.4389   -0.8888    2.4969 N.am      1 <0>        -0.2551
     15 C10        -2.1681   -1.3341    3.5392 C.2       1 <0>         0.3824
     16 O2         -3.1992   -1.9459    3.3420 O.2       1 <0>        -0.3248
     17 C11        -1.7122   -1.0774    4.9267 C.2       1 <0>        -0.1723
     18 C12        -2.3643   -1.4718    6.1218 C.2       1 <0>        -0.1678
     19 C13        -1.5428   -1.0002    7.1135 C.2       1 <0>        -0.0149
     20 O3         -0.5193   -0.3835    6.4944 O.3       1 <0>         0.0705
     21 N3         -0.6279   -0.4352    5.2917 N.2       1 <0>        -0.0085
     22 C14        -1.7436   -1.1356    8.5636 C.2       1 <0>        -0.0051
     23 C15        -0.9140   -0.6587    9.5348 C.2       1 <0>        -0.1638
     24 C16        -1.4918   -1.0095   10.7688 C.2       1 <0>        -0.2215
     25 C17        -2.6281   -1.6836   10.4969 C.2       1 <0>        -0.0748
     26 O4         -2.7770   -1.7579    9.1650 O.3       1 <0>        -0.0401
     27 C18        -3.9579   -2.3421   -2.1662 C.3       1 <0>        -0.0692
     28 H2         -4.8984   -1.7522   -4.6620 H         1 <0>         0.0740
     29 H3         -3.5827   -2.5055   -5.5946 H         1 <0>         0.0766
     30 H4         -4.6174   -3.5061   -4.5476 H         1 <0>         0.0751
     31 H5         -2.1117   -0.8246   -4.6368 H         1 <0>         0.0843
     32 H6         -3.2523   -0.1503   -3.4494 H         1 <0>         0.0850
     33 H7         -0.5736   -1.4863   -2.8700 H         1 <0>         0.1047
     34 H8         -1.0005    0.2261   -2.6192 H         1 <0>         0.0888
     35 H9          0.8172    1.8399    0.0041 H         1 <0>         0.2270
     36 H10        -0.8627    1.8171    0.0160 H         1 <0>         0.2191
     37 H11        -0.6158   -0.4004    2.6544 H         1 <0>         0.2605
     38 H12        -3.2901   -2.0180    6.2267 H         1 <0>         0.2007
     39 H13         0.0070   -0.1146    9.3858 H         1 <0>         0.1685
     40 H14        -1.0979   -0.7847   11.7489 H         1 <0>         0.1636
     41 H15        -3.3063   -2.0951   11.2297 H         1 <0>         0.2066
     42 H16        -4.2506   -3.3679   -1.9424 H         1 <0>         0.0948
     43 H17        -4.8461   -1.7152   -2.2454 H         1 <0>         0.0949
@<TRIPOS>BOND
     1    1    2 1
     2    1   28 1
     3    1   29 1
     4    1   30 1
     5    2    3 1
     6    2   27 1
     7    2    4 1
     8    4    5 1
     9    4   31 1
    10    4   32 1
    11    5    6 1
    12    5   33 1
    13    5   34 1
    14    6   10 1
    15    6    7 2
    16    7    8 1
    17    7   27 1
    18    8    9 1
    19    9   10 2
    20    9   14 1
    21   10   11 1
    22   11   12 2
    23   11   13 am
    24   13   35 1
    25   13   36 1
    26   14   15 am
    27   14   37 1
    28   15   16 2
    29   15   17 1
    30   17   21 2
    31   17   18 1
    32   18   19 2
    33   18   38 1
    34   19   20 1
    35   19   22 1
    36   20   21 1
    37   22   26 1
    38   22   23 2
    39   23   24 1
    40   23   39 1
    41   24   25 2
    42   24   40 1
    43   25   26 1
    44   25   41 1
    45   27   42 1
    46   27   43 1
@<TRIPOS>MOLECULE
ZINC02616089
   39    42     0     0     0
SMALL
USER_CHARGES

@<TRIPOS>ATOM
      1 C1          3.0745    1.7489    6.1614 C.3       1 <0>        -0.0664
      2 O1          3.7870    1.2494    5.0279 O.3       1 <0>        -0.1968
      3 C2          3.1886    1.3838    3.8141 C.ar      1 <0>         0.0863
      4 C3          1.9432    1.9832    3.7165 C.ar      1 <0>        -0.2116
      5 C4          1.3361    2.1187    2.4819 C.ar      1 <0>        -0.0700
      6 C5          1.9690    1.6574    1.3426 C.ar      1 <0>        -0.1354
      7 C6          3.2093    1.0537    1.4336 C.ar      1 <0>        -0.0957
      8 C7          3.8255    0.9191    2.6674 C.ar      1 <0>         0.0423
      9 O2          5.0479    0.3300    2.7581 O.3       1 <0>        -0.2713
     10 C8          1.3027    1.8076   -0.0007 C.3       1 <0>         0.1600
     11 H1          1.9463    1.3879   -0.7738 H         1 <0>         0.1268
     12 C9         -0.0126    1.0758    0.0080 C.2       1 <0>        -0.2649
     13 C10        -1.1882    1.6887    0.0170 C.2       1 <0>         0.1005
     14 N1         -1.2988    3.0858    0.0228 N.pl3     1 <0>        -0.2682
     15 C11        -0.1493    3.8092   -0.2535 C.2       1 <0>         0.1060
     16 N2          1.0756    3.2214   -0.2742 N.pl3     1 <0>        -0.2012
     17 N3          1.9722    4.2393   -0.5947 N.2       1 <0>        -0.0285
     18 N4          1.2704    5.3175   -0.7339 N.2       1 <0>         0.0017
     19 N5          0.0213    5.0698   -0.5330 N.2       1 <0>        -0.1824
     20 C12        -2.4231    0.8713    0.0272 C.ar      1 <0>        -0.0715
     21 C13        -2.3406   -0.5209    0.0213 C.ar      1 <0>        -0.0813
     22 C14        -3.4937   -1.2779    0.0362 C.ar      1 <0>        -0.1625
     23 C15        -4.7326   -0.6573    0.0462 C.ar      1 <0>         0.1134
     24 C16        -4.8197    0.7257    0.0463 C.ar      1 <0>        -0.1607
     25 C17        -3.6723    1.4913    0.0368 C.ar      1 <0>        -0.0898
     26 F1         -5.8591   -1.4029    0.0555 F         1 <0>        -0.0980
     27 H2          3.6619    1.5789    7.0637 H         1 <0>         0.1127
     28 H3          2.8990    2.8176    6.0381 H         1 <0>         0.0728
     29 H4          2.1190    1.2313    6.2469 H         1 <0>         0.0657
     30 H5          1.4466    2.3444    4.6050 H         1 <0>         0.1425
     31 H6          0.3654    2.5861    2.4072 H         1 <0>         0.1360
     32 H7          3.6998    0.6905    0.5426 H         1 <0>         0.1474
     33 H8          5.0143   -0.6276    2.8883 H         1 <0>         0.2239
     34 H9          0.0021   -0.0041    0.0020 H         1 <0>         0.1615
     35 H10        -2.1426    3.5269    0.2084 H         1 <0>         0.2700
     36 H11        -1.3755   -1.0055    0.0090 H         1 <0>         0.1451
     37 H12        -3.4308   -2.3561    0.0354 H         1 <0>         0.1528
     38 H13        -5.7875    1.2049    0.0534 H         1 <0>         0.1529
     39 H14        -3.7412    2.5691    0.0365 H         1 <0>         0.1359
@<TRIPOS>BOND
     1    1    2 1
     2    1   27 1
     3    1   28 1
     4    1   29 1
     5    2    3 1
     6    3    8 ar
     7    3    4 ar
     8    4    5 ar
     9    4   30 1
    10    5    6 ar
    11    5   31 1
    12    6    7 ar
    13    6   10 1
    14    7    8 ar
    15    7   32 1
    16    8    9 1
    17    9   33 1
    18   10   11 1
    19   10   16 1
    20   10   12 1
    21   12   13 2
    22   12   34 1
    23   13   14 1
    24   13   20 1
    25   14   15 1
    26   14   35 1
    27   15   19 2
    28   15   16 1
    29   16   17 1
    30   17   18 2
    31   18   19 1
    32   20   25 ar
    33   20   21 ar
    34   21   22 ar
    35   21   36 1
    36   22   23 ar
    37   22   37 1
    38   23   24 ar
    39   23   26 1
    40   24   25 ar
    41   24   38 1
    42   25   39 1
@<TRIPOS>MOLECULE
ZINC02620245
   42    45     0     0     0
SMALL
USER_CHARGES

@<TRIPOS>ATOM
      1 C1         -4.5475   -1.3025    3.5457 C.ar      1 <0>        -0.1522
      2 C2         -3.1954   -1.5862    3.6122 C.ar      1 <0>        -0.1028
      3 C3         -2.5342   -2.0509    2.4961 C.ar      1 <0>        -0.1722
      4 C4         -3.2203   -2.2377    1.2945 C.ar      1 <0>         0.0530
      5 C5         -4.5719   -1.9480    1.2324 C.ar      1 <0>        -0.0932
      6 C6         -5.2308   -1.4834    2.3599 C.ar      1 <0>        -0.1003
      7 C7         -5.3689   -2.1200   -0.0363 C.3       1 <0>        -0.1164
      8 C8         -4.5821   -2.9832   -1.0253 C.3       1 <0>        -0.1596
      9 C9         -3.1461   -2.4472   -1.0808 C.3       1 <0>        -0.0819
     10 N1         -2.4960   -2.7156    0.2035 N.pl3     1 <0>        -0.1761
     11 C10        -1.1215   -2.1973    0.2162 C.3       1 <0>        -0.0986
     12 C11        -1.1512   -0.6927    0.1358 C.2       1 <0>         0.2656
     13 O1         -2.2113   -0.1044    0.1701 O.2       1 <0>        -0.3424
     14 N2          0.0002   -0.0009    0.0257 N.am      1 <0>        -0.3255
     15 C12        -0.0200    1.3997    0.0409 C.ar      1 <0>         0.0634
     16 C13         1.0165    2.1020    0.6454 C.ar      1 <0>        -0.1546
     17 C14         1.0053    3.4822    0.6586 C.ar      1 <0>        -0.1084
     18 C15        -0.0486    4.1713    0.0775 C.ar      1 <0>        -0.0146
     19 C16        -1.0940    3.4688   -0.5254 C.ar      1 <0>         0.0183
     20 C17        -1.0768    2.0829   -0.5420 C.ar      1 <0>        -0.1244
     21 N3         -1.9891    4.4183   -1.0126 N.am      1 <0>        -0.2930
     22 H1         -2.8164    4.2296   -1.4825 H         1 <0>         0.2703
     23 C18        -1.5111    5.6423   -0.7201 C.2       1 <0>         0.3902
     24 O2         -2.0535    6.6933   -1.0069 O.2       1 <0>        -0.3839
     25 N4         -0.3418    5.5275   -0.0626 N.am      1 <0>        -0.2969
     26 H2          0.2033    6.2626    0.2590 H         1 <0>         0.2673
     27 H3         -5.0679   -0.9405    4.4201 H         1 <0>         0.1271
     28 H4         -2.6582   -1.4432    4.5382 H         1 <0>         0.1259
     29 H5         -1.4784   -2.2718    2.5510 H         1 <0>         0.1231
     30 H6         -6.2865   -1.2608    2.3103 H         1 <0>         0.1279
     31 H7         -5.5603   -1.1429   -0.4798 H         1 <0>         0.0944
     32 H8         -6.3174   -2.6053    0.1941 H         1 <0>         0.0890
     33 H9         -5.0377   -2.9199   -2.0135 H         1 <0>         0.0859
     34 H10        -4.5762   -4.0193   -0.6869 H         1 <0>         0.0994
     35 H11        -3.1634   -1.3730   -1.2646 H         1 <0>         0.0925
     36 H12        -2.5975   -2.9461   -1.8798 H         1 <0>         0.0886
     37 H13        -0.5749   -2.5961   -0.6383 H         1 <0>         0.1121
     38 H14        -0.6268   -2.5021    1.1384 H         1 <0>         0.1266
     39 H15         0.8429   -0.4729   -0.0640 H         1 <0>         0.2332
     40 H16         1.8351    1.5659    1.1024 H         1 <0>         0.1361
     41 H17         1.8144    4.0248    1.1247 H         1 <0>         0.1377
     42 H18        -1.8841    1.5367   -1.0072 H         1 <0>         0.1693
@<TRIPOS>BOND
     1    1    6 ar
     2    1    2 ar
     3    1   27 1
     4    2    3 ar
     5    2   28 1
     6    3    4 ar
     7    3   29 1
     8    4   10 1
     9    4    5 ar
    10    5    6 ar
    11    5    7 1
    12    6   30 1
    13    7    8 1
    14    7   31 1
    15    7   32 1
    16    8    9 1
    17    8   33 1
    18    8   34 1
    19    9   10 1
    20    9   35 1
    21    9   36 1
    22   10   11 1
    23   11   12 1
    24   11   37 1
    25   11   38 1
    26   12   13 2
    27   12   14 am
    28   14   15 1
    29   14   39 1
    30   15   20 ar
    31   15   16 ar
    32   16   17 ar
    33   16   40 1
    34   17   18 ar
    35   17   41 1
    36   18   25 1
    37   18   19 ar
    38   19   20 ar
    39   19   21 1
    40   20   42 1
    41   21   22 1
    42   21   23 am
    43   23   24 2
    44   23   25 am
    45   25   26 1
@<TRIPOS>MOLECULE
ZINC02622008
   43    45     0     0     0
SMALL
USER_CHARGES

@<TRIPOS>ATOM
      1 C1         -0.7345    3.2910    2.5247 C.3       1 <0>        -0.2194
      2 C2         -1.2198    4.0595    1.2939 C.3       1 <0>        -0.1601
      3 C3         -0.7274    3.3570    0.0271 C.3       1 <0>         0.0777
      4 C4          0.7866    3.2836    0.0122 C.2       1 <0>         0.3299
      5 O1          1.5648    4.2131    0.0104 O.2       1 <0>        -0.2915
      6 N1          1.0875    1.9700    0.0023 N.am      1 <0>        -0.3106
      7 C5         -0.0144    1.2112    0.0087 C.2       1 <0>         0.4105
      8 O2          0.0021   -0.0041    0.0020 O.2       1 <0>        -0.3732
      9 N2         -1.1427    1.9437    0.0176 N.am      1 <0>        -0.3890
     10 C6          2.4526    1.4385   -0.0129 C.3       1 <0>        -0.0165
     11 C7          2.9079    1.2637   -1.4388 C.2       1 <0>         0.2961
     12 O3          2.1652    1.5545   -2.3524 O.2       1 <0>        -0.3356
     13 N3          4.1404    0.7843   -1.6988 N.am      1 <0>        -0.2867
     14 C8          4.5618    0.6225   -3.0187 C.2       1 <0>         0.0053
     15 C9          3.8181    0.9141   -4.1930 C.2       1 <0>        -0.2332
     16 C10         4.6591    0.5890   -5.2010 C.2       1 <0>        -0.0905
     17 O4          5.7894    0.1482   -4.6299 O.3       1 <0>         0.0467
     18 N4          5.7225    0.1775   -3.4230 N.2       1 <0>        -0.0793
     19 C11         4.3807    0.7010   -6.6778 C.3       1 <0>        -0.1334
     20 C12        -1.2359    4.0656   -1.2019 C.ar      1 <0>        -0.0985
     21 C13        -1.4318    5.4338   -1.1795 C.ar      1 <0>        -0.1034
     22 C14        -1.8937    6.0844   -2.3084 C.ar      1 <0>        -0.1289
     23 C15        -2.1692    5.3655   -3.4565 C.ar      1 <0>        -0.1155
     24 C16        -1.9787    3.9965   -3.4770 C.ar      1 <0>        -0.1268
     25 C17        -1.5118    3.3466   -2.3499 C.ar      1 <0>        -0.1005
     26 H1         -1.0853    3.7915    3.4272 H         1 <0>         0.0846
     27 H2         -1.1274    2.2747    2.4967 H         1 <0>         0.0835
     28 H3          0.3551    3.2594    2.5269 H         1 <0>         0.0774
     29 H4         -0.8269    5.0758    1.3219 H         1 <0>         0.1088
     30 H5         -2.3094    4.0912    1.2917 H         1 <0>         0.0995
     31 H6         -2.0524    1.6069    0.0193 H         1 <0>         0.2785
     32 H7          3.1187    2.1333    0.4986 H         1 <0>         0.1305
     33 H8          2.4729    0.4746    0.4957 H         1 <0>         0.1370
     34 H9          4.7344    0.5518   -0.9680 H         1 <0>         0.2434
     35 H10         2.8137    1.3046   -4.2645 H         1 <0>         0.2081
     36 H11         4.6865    1.6856   -7.0315 H         1 <0>         0.0985
     37 H12         4.9399   -0.0670   -7.2123 H         1 <0>         0.0950
     38 H13         3.3142    0.5654   -6.8577 H         1 <0>         0.1018
     39 H14        -1.2205    5.9950   -0.2813 H         1 <0>         0.1362
     40 H15        -2.0429    7.1540   -2.2922 H         1 <0>         0.1333
     41 H16        -2.5336    5.8733   -4.3372 H         1 <0>         0.1315
     42 H17        -2.1942    3.4347   -4.3739 H         1 <0>         0.1346
     43 H18        -1.3630    2.2770   -2.3659 H         1 <0>         0.1442
@<TRIPOS>BOND
     1    1    2 1
     2    1   26 1
     3    1   27 1
     4    1   28 1
     5    2    3 1
     6    2   29 1
     7    2   30 1
     8    3    9 1
     9    3    4 1
    10    3   20 1
    11    4    5 2
    12    4    6 am
    13    6    7 am
    14    6   10 1
    15    7    8 2
    16    7    9 am
    17    9   31 1
    18   10   11 1
    19   10   32 1
    20   10   33 1
    21   11   12 2
    22   11   13 am
    23   13   14 1
    24   13   34 1
    25   14   18 2
    26   14   15 1
    27   15   16 2
    28   15   35 1
    29   16   17 1
    30   16   19 1
    31   17   18 1
    32   19   36 1
    33   19   37 1
    34   19   38 1
    35   20   25 ar
    36   20   21 ar
    37   21   22 ar
    38   21   39 1
    39   22   23 ar
    40   22   40 1
    41   23   24 ar
    42   23   41 1
    43   24   25 ar
    44   24   42 1
    45   25   43 1
@<TRIPOS>MOLECULE
ZINC02622009
   43    45     0     0     0
SMALL
USER_CHARGES

@<TRIPOS>ATOM
      1 C1         -0.8889    3.2588   -2.4643 C.3       1 <0>        -0.2229
      2 C2         -1.2437    4.0764   -1.2207 C.3       1 <0>        -0.1589
      3 C3         -0.7274    3.3570    0.0271 C.3       1 <0>         0.0766
      4 C4          0.7866    3.2836    0.0122 C.2       1 <0>         0.3295
      5 O1          1.5648    4.2131    0.0092 O.2       1 <0>        -0.2921
      6 N1          1.0875    1.9700    0.0023 N.am      1 <0>        -0.3106
      7 C5         -0.0144    1.2112    0.0087 C.2       1 <0>         0.4104
      8 O2          0.0021   -0.0041    0.0020 O.2       1 <0>        -0.3732
      9 N2         -1.1427    1.9437    0.0176 N.am      1 <0>        -0.3878
     10 C6          2.4526    1.4385   -0.0129 C.3       1 <0>        -0.0166
     11 C7          2.9079    1.2637   -1.4388 C.2       1 <0>         0.2977
     12 O3          2.1652    1.5545   -2.3524 O.2       1 <0>        -0.3411
     13 N3          4.1404    0.7843   -1.6988 N.am      1 <0>        -0.2859
     14 C8          4.5618    0.6225   -3.0187 C.2       1 <0>         0.0050
     15 C9          3.8160    0.9088   -4.1930 C.2       1 <0>        -0.2344
     16 C10         4.6591    0.5888   -5.2010 C.2       1 <0>        -0.0898
     17 O4          5.7890    0.1472   -4.6299 O.3       1 <0>         0.0474
     18 N4          5.7203    0.1717   -3.4230 N.2       1 <0>        -0.0787
     19 C11         4.3802    0.6998   -6.6778 C.3       1 <0>        -0.1340
     20 C12        -1.2124    4.0490    1.2749 C.ar      1 <0>        -0.0985
     21 C13        -1.3977    5.4188    1.2780 C.ar      1 <0>        -0.1012
     22 C14        -1.8468    6.0529    2.4213 C.ar      1 <0>        -0.1268
     23 C15        -2.1014    5.3184    3.5643 C.ar      1 <0>        -0.1162
     24 C16        -1.9115    3.9492    3.5627 C.ar      1 <0>        -0.1275
     25 C17        -1.4666    3.3145    2.4181 C.ar      1 <0>        -0.1125
     26 H1         -1.2567    3.7713   -3.3532 H         1 <0>         0.0802
     27 H2          0.1935    3.1487   -2.5301 H         1 <0>         0.1001
     28 H3         -1.3508    2.2739   -2.3955 H         1 <0>         0.0835
     29 H4         -2.3261    4.1865   -1.1548 H         1 <0>         0.0958
     30 H5         -0.7818    5.0613   -1.2895 H         1 <0>         0.1066
     31 H6         -2.0524    1.6069    0.0193 H         1 <0>         0.2788
     32 H7          3.1187    2.1333    0.4986 H         1 <0>         0.1318
     33 H8          2.4729    0.4746    0.4957 H         1 <0>         0.1377
     34 H9          4.7344    0.5518   -0.9680 H         1 <0>         0.2440
     35 H10         2.8099    1.2950   -4.2645 H         1 <0>         0.2075
     36 H11         5.2515    0.3614   -7.2385 H         1 <0>         0.0948
     37 H12         3.5207    0.0799   -6.9329 H         1 <0>         0.1011
     38 H13         4.1667    1.7385   -6.9301 H         1 <0>         0.1005
     39 H14        -1.1949    5.9932    0.3862 H         1 <0>         0.1399
     40 H15        -1.9955    7.1227    2.4225 H         1 <0>         0.1349
     41 H16        -2.4491    5.8143    4.4586 H         1 <0>         0.1327
     42 H17        -2.1105    3.3754    4.4557 H         1 <0>         0.1342
     43 H18        -1.3179    2.2448    2.4169 H         1 <0>         0.1378
@<TRIPOS>BOND
     1    1    2 1
     2    1   26 1
     3    1   27 1
     4    1   28 1
     5    2    3 1
     6    2   29 1
     7    2   30 1
     8    3    9 1
     9    3    4 1
    10    3   20 1
    11    4    5 2
    12    4    6 am
    13    6    7 am
    14    6   10 1
    15    7    8 2
    16    7    9 am
    17    9   31 1
    18   10   11 1
    19   10   32 1
    20   10   33 1
    21   11   12 2
    22   11   13 am
    23   13   14 1
    24   13   34 1
    25   14   18 2
    26   14   15 1
    27   15   16 2
    28   15   35 1
    29   16   17 1
    30   16   19 1
    31   17   18 1
    32   19   36 1
    33   19   37 1
    34   19   38 1
    35   20   25 ar
    36   20   21 ar
    37   21   22 ar
    38   21   39 1
    39   22   23 ar
    40   22   40 1
    41   23   24 ar
    42   23   41 1
    43   24   25 ar
    44   24   42 1
    45   25   43 1
@<TRIPOS>MOLECULE
ZINC02624806
   39    41     0     0     0
SMALL
USER_CHARGES

@<TRIPOS>ATOM
      1 C1          2.6355    3.4176    2.0457 C.3       1 <0>        -0.2150
      2 C2          1.3677    3.9775    1.3976 C.3       1 <0>        -0.1163
      3 C3          1.4272    5.5063    1.3980 C.3       1 <0>        -0.2069
      4 C4          1.2650    3.4715   -0.0426 C.3       1 <0>        -0.0647
      5 C5          1.0829    1.9755   -0.0377 C.2       1 <0>        -0.2026
      6 N1         -0.0219    1.2566   -0.0068 N.2       1 <0>        -0.0622
      7 N2         -0.0027   -0.0045   -0.0074 N.2       1 <0>        -0.0868
      8 C6          1.1341   -0.6867   -0.0394 C.2       1 <0>        -0.0780
      9 S1          2.3052    0.6675   -0.0722 S.3       1 <0>         0.1948
     10 N3          1.3535   -2.0583   -0.0458 N.am      1 <0>        -0.2689
     11 C7          0.3079   -2.9081   -0.0160 C.2       1 <0>         0.3385
     12 O1         -0.8213   -2.4778    0.1108 O.2       1 <0>        -0.2800
     13 C8          0.5354   -4.3678   -0.1379 C.2       1 <0>        -0.0358
     14 C9          1.8024   -4.8779   -0.1550 C.2       1 <0>        -0.1827
     15 C10         1.9943   -6.3214   -0.2715 C.2       1 <0>         0.3305
     16 O2          3.1239   -6.7775   -0.2821 O.2       1 <0>        -0.3582
     17 N4          0.9432   -7.1537   -0.3716 N.am      1 <0>        -0.2774
     18 H1          1.1033   -8.1374   -0.4535 H         1 <0>         0.2575
     19 C11        -0.3508   -6.6785   -0.3636 C.ar      1 <0>         0.0957
     20 C12        -0.5981   -5.2989   -0.2493 C.ar      1 <0>        -0.1043
     21 C13        -1.9133   -4.8259   -0.2430 C.ar      1 <0>        -0.0645
     22 C14        -2.9527   -5.7064   -0.3479 C.ar      1 <0>        -0.1643
     23 C15        -2.7138   -7.0690   -0.4613 C.ar      1 <0>        -0.0701
     24 C16        -1.4255   -7.5574   -0.4702 C.ar      1 <0>        -0.1889
     25 H2          3.5079    3.7473    1.4816 H         1 <0>         0.0740
     26 H3          2.7087    3.7781    3.0717 H         1 <0>         0.0808
     27 H4          2.5931    2.3284    2.0454 H         1 <0>         0.0794
     28 H5          0.4952    3.6477    1.9617 H         1 <0>         0.1072
     29 H6          0.5240    5.9052    0.9363 H         1 <0>         0.0772
     30 H7          1.5004    5.8668    2.4241 H         1 <0>         0.0815
     31 H8          2.2996    5.8361    0.8339 H         1 <0>         0.0739
     32 H9          2.1773    3.7246   -0.5826 H         1 <0>         0.1019
     33 H10         0.4111    3.9398   -0.5322 H         1 <0>         0.1205
     34 H11         2.2593   -2.4045   -0.0716 H         1 <0>         0.2540
     35 H12         2.6553   -4.2197   -0.0798 H         1 <0>         0.1539
     36 H13        -2.1074   -3.7671   -0.1551 H         1 <0>         0.1921
     37 H14        -3.9684   -5.3392   -0.3428 H         1 <0>         0.1408
     38 H15        -3.5457   -7.7528   -0.5438 H         1 <0>         0.1358
     39 H16        -1.2497   -8.6193   -0.5589 H         1 <0>         0.1374
@<TRIPOS>BOND
     1    1    2 1
     2    1   25 1
     3    1   26 1
     4    1   27 1
     5    2    3 1
     6    2    4 1
     7    2   28 1
     8    3   29 1
     9    3   30 1
    10    3   31 1
    11    4    5 1
    12    4   32 1
    13    4   33 1
    14    5    9 1
    15    5    6 2
    16    6    7 1
    17    7    8 2
    18    8    9 1
    19    8   10 1
    20   10   11 am
    21   10   34 1
    22   11   12 2
    23   11   13 1
    24   13   20 1
    25   13   14 2
    26   14   15 1
    27   14   35 1
    28   15   16 2
    29   15   17 am
    30   17   18 1
    31   17   19 1
    32   19   24 ar
    33   19   20 ar
    34   20   21 ar
    35   21   22 ar
    36   21   36 1
    37   22   23 ar
    38   22   37 1
    39   23   24 ar
    40   23   38 1
    41   24   39 1
@<TRIPOS>MOLECULE
ZINC02624887
   40    42     0     0     0
SMALL
USER_CHARGES

@<TRIPOS>ATOM
      1 C1         -2.5101    0.9863   -0.0092 C.3       1 <0>        -0.1728
      2 C2         -1.2167    1.7598   -0.0040 C.ar      1 <0>        -0.0517
      3 C3         -1.2464    3.1469    0.0065 C.ar      1 <0>        -0.1424
      4 C4         -0.0822    3.8642    0.0055 C.ar      1 <0>        -0.0743
      5 C5          1.1412    3.1959   -0.0002 C.ar      1 <0>        -0.1033
      6 C6          1.1779    1.7915   -0.0050 C.ar      1 <0>         0.0323
      7 C7         -0.0166    1.0818   -0.0040 C.ar      1 <0>        -0.1166
      8 O1          2.4751    1.4248   -0.0100 O.3       1 <0>        -0.0755
      9 C8          3.2782    2.5032   -0.0087 C.2       1 <0>        -0.0321
     10 C9          2.5450    3.6248   -0.0029 C.2       1 <0>        -0.1619
     11 C10         3.0585    5.0416    0.0009 C.3       1 <0>        -0.1095
     12 C11         3.1174    5.5508    1.4180 C.2       1 <0>         0.2967
     13 O2          2.7761    4.8338    2.3347 O.2       1 <0>        -0.3255
     14 N1          3.5494    6.8030    1.6667 N.am      1 <0>        -0.3364
     15 C12         3.5132    7.3096    2.9705 C.ar      1 <0>         0.1196
     16 C13         3.2423    8.6543    3.1873 C.ar      1 <0>        -0.1896
     17 C14         3.2021    9.1501    4.4757 C.ar      1 <0>        -0.0091
     18 C15         3.4421    8.3114    5.5487 C.ar      1 <0>        -0.7820
     19 C16         3.7179    6.9732    5.3359 C.ar      1 <0>        -0.0094
     20 C17         3.7539    6.4700    4.0502 C.ar      1 <0>        -0.1542
     21 S1          3.3960    8.9492    7.1905 S.o2      1 <0>         2.7632
     22 O3          2.5799   10.1118    7.1518 O.2       1 <0>        -0.9195
     23 O4          3.1154    7.8495    8.0457 O.2       1 <0>        -0.9159
     24 N2          4.9276    9.4582    7.5613 N.pl3     1 <0>        -0.9320
     25 H1         -2.8240    0.7964    1.0172 H         1 <0>         0.0905
     26 H2         -3.2777    1.5654   -0.5226 H         1 <0>         0.0835
     27 H3         -2.3642    0.0378   -0.5260 H         1 <0>         0.0827
     28 H4         -2.1949    3.6633    0.0106 H         1 <0>         0.1340
     29 H5         -0.1105    4.9438    0.0089 H         1 <0>         0.1298
     30 H6         -0.0047    0.0018   -0.0076 H         1 <0>         0.1405
     31 H7          4.3577    2.4702   -0.0125 H         1 <0>         0.1960
     32 H8          4.0566    5.0675   -0.4363 H         1 <0>         0.1037
     33 H9          2.3890    5.6722   -0.5843 H         1 <0>         0.1143
     34 H10         3.8855    7.3530    0.9418 H         1 <0>         0.2342
     35 H11         3.0588    9.3106    2.3495 H         1 <0>         0.1363
     36 H12         2.9871   10.1948    4.6452 H         1 <0>         0.1540
     37 H13         3.9049    6.3207    6.1759 H         1 <0>         0.1577
     38 H14         3.9685    5.4245    3.8846 H         1 <0>         0.1730
     39 H15         5.6397    9.3689    6.9087 H         1 <0>         0.2287
     40 H16         5.1127    9.8457    8.4311 H         1 <0>         0.2429
@<TRIPOS>BOND
     1    1    2 1
     2    1   25 1
     3    1   26 1
     4    1   27 1
     5    2    7 ar
     6    2    3 ar
     7    3    4 ar
     8    3   28 1
     9    4    5 ar
    10    4   29 1
    11    5   10 1
    12    5    6 ar
    13    6    7 ar
    14    6    8 1
    15    7   30 1
    16    8    9 1
    17    9   10 2
    18    9   31 1
    19   10   11 1
    20   11   12 1
    21   11   32 1
    22   11   33 1
    23   12   13 2
    24   12   14 am
    25   14   15 1
    26   14   34 1
    27   15   20 ar
    28   15   16 ar
    29   16   17 ar
    30   16   35 1
    31   17   18 ar
    32   17   36 1
    33   18   19 ar
    34   18   21 1
    35   19   20 ar
    36   19   37 1
    37   20   38 1
    38   21   22 2
    39   21   23 2
    40   21   24 1
    41   24   39 1
    42   24   40 1
@<TRIPOS>MOLECULE
ZINC02626208
   40    43     0     0     0
SMALL
USER_CHARGES

@<TRIPOS>ATOM
      1 C1         10.2026   -4.7641   -2.3854 C.ar      1 <0>        -0.1257
      2 C2          9.8517   -3.5188   -1.8678 C.ar      1 <0>        -0.1198
      3 C3          8.6247   -2.9804   -2.1092 C.ar      1 <0>        -0.1247
      4 C4          7.6989   -3.6851   -2.8945 C.ar      1 <0>        -0.0482
      5 C5          8.0530   -4.9533   -3.4176 C.ar      1 <0>        -0.0225
      6 C6          9.3291   -5.4774   -3.1473 C.ar      1 <0>        -0.1106
      7 C7          7.1258   -5.6619   -4.2003 C.ar      1 <0>        -0.1288
      8 C8          5.8966   -5.1300   -4.4462 C.ar      1 <0>        -0.1088
      9 C9          5.5358   -3.8875   -3.9337 C.ar      1 <0>        -0.1236
     10 C10         6.4162   -3.1612   -3.1611 C.ar      1 <0>         0.0555
     11 N1          6.0443   -1.9156   -2.6518 N.am      1 <0>        -0.3133
     12 C11         4.7689   -1.6946   -2.2764 C.2       1 <0>         0.3171
     13 O1          3.9269   -2.5488   -2.4568 O.2       1 <0>        -0.3404
     14 C12         4.3889   -0.3862   -1.6326 C.3       1 <0>        -0.3195
     15 S1          2.6205   -0.3946   -1.2469 S.3       1 <0>         0.3428
     16 C13         2.4569    1.2048   -0.5261 C.2       1 <0>        -0.1423
     17 N2          3.4180    2.0687   -0.3686 N.2       1 <0>        -0.1107
     18 N3          2.8793    3.2114    0.2386 N.am      1 <0>        -0.2976
     19 H1          3.3635    4.0175    0.4765 H         1 <0>         0.2970
     20 C14         1.5626    2.9859    0.4265 C.2       1 <0>         0.3609
     21 O2          0.7642    3.7585    0.9264 O.2       1 <0>        -0.3870
     22 N4          1.2913    1.7493   -0.0363 N.am      1 <0>        -0.2323
     23 C15        -0.0211    1.0985   -0.0258 C.3       1 <0>        -0.0319
     24 C16        -1.1463    1.7898    0.7469 C.3       1 <0>        -0.2082
     25 C17        -1.1576    1.7876   -0.7838 C.3       1 <0>        -0.2174
     26 H2         11.1823   -5.1690   -2.1793 H         1 <0>         0.1302
     27 H3         10.5636   -2.9726   -1.2667 H         1 <0>         0.1291
     28 H4          8.3663   -2.0142   -1.7016 H         1 <0>         0.1223
     29 H5          9.6149   -6.4410   -3.5424 H         1 <0>         0.1353
     30 H6          7.3880   -6.6274   -4.6069 H         1 <0>         0.1338
     31 H7          5.1903   -5.6814   -5.0491 H         1 <0>         0.1348
     32 H8          4.5545   -3.4881   -4.1434 H         1 <0>         0.1647
     33 H9          6.7038   -1.2093   -2.5682 H         1 <0>         0.2368
     34 H10         4.6074    0.4329   -2.3177 H         1 <0>         0.1369
     35 H11         4.9605   -0.2537   -0.7139 H         1 <0>         0.1385
     36 H12        -0.0054    0.0086   -0.0243 H         1 <0>         0.1500
     37 H13        -1.8708    1.1547    1.2567 H         1 <0>         0.1146
     38 H14        -0.9101    2.7290    1.2471 H         1 <0>         0.1674
     39 H15        -0.9288    2.7254   -1.2900 H         1 <0>         0.1289
     40 H16        -1.8892    1.1511   -1.2814 H         1 <0>         0.1168
@<TRIPOS>BOND
     1    1    6 ar
     2    1    2 ar
     3    1   26 1
     4    2    3 ar
     5    2   27 1
     6    3    4 ar
     7    3   28 1
     8    4   10 ar
     9    4    5 ar
    10    5    6 ar
    11    5    7 ar
    12    6   29 1
    13    7    8 ar
    14    7   30 1
    15    8    9 ar
    16    8   31 1
    17    9   10 ar
    18    9   32 1
    19   10   11 1
    20   11   12 am
    21   11   33 1
    22   12   13 2
    23   12   14 1
    24   14   15 1
    25   14   34 1
    26   14   35 1
    27   15   16 1
    28   16   22 1
    29   16   17 2
    30   17   18 1
    31   18   19 1
    32   18   20 am
    33   20   21 2
    34   20   22 am
    35   22   23 1
    36   23   25 1
    37   23   24 1
    38   23   36 1
    39   24   25 1
    40   24   37 1
    41   24   38 1
    42   25   39 1
    43   25   40 1
@<TRIPOS>MOLECULE
ZINC02627708
   41    43     0     0     0
SMALL
USER_CHARGES

@<TRIPOS>ATOM
      1 C1          0.0021   -0.0041    0.0020 C.3       1 <0>        -0.2089
      2 C2         -0.0187    1.5258    0.0104 C.3       1 <0>        -0.1841
      3 C3         -0.7348    2.0192    1.2692 C.3       1 <0>        -0.0085
      4 N1         -0.7547    3.4840    1.2773 N.am      1 <0>        -0.1756
      5 C4         -1.7953    4.1115    0.6916 C.2       1 <0>         0.3109
      6 O1         -2.6931    3.4754    0.1707 O.2       1 <0>        -0.3364
      7 C5         -1.8222    5.5807    0.7010 C.ar      1 <0>        -0.1312
      8 C6         -2.8517    6.3214    0.1289 C.ar      1 <0>        -0.0643
      9 C7         -2.8001    7.6983    0.1757 C.ar      1 <0>        -0.1344
     10 C8         -1.7351    8.3484    0.7856 C.ar      1 <0>        -0.1026
     11 C9         -0.7050    7.6322    1.3577 C.ar      1 <0>        -0.1136
     12 C10        -0.7377    6.2425    1.3220 C.ar      1 <0>        -0.0262
     13 C11         0.3205    5.4047    1.9092 C.2       1 <0>        -0.1327
     14 N2          0.2184    4.0996    1.8349 N.2       1 <0>        -0.0035
     15 C12         1.4822    6.0261    2.5739 C.2       1 <0>         0.3776
     16 O2          1.5696    7.2372    2.6388 O.2       1 <0>        -0.3513
     17 N3          2.4464    5.2513    3.1092 N.am      1 <0>        -0.2439
     18 C13         3.5368    5.8346    3.7332 C.2       1 <0>        -0.0871
     19 C14         4.6188    5.2101    4.3435 C.2       1 <0>        -0.2719
     20 C15         5.6259    6.0706    4.9170 C.2       1 <0>        -0.1274
     21 C16         5.4266    7.3976    4.8219 C.2       1 <0>        -0.3773
     22 S1          3.8792    7.5182    3.9489 S.3       1 <0>         0.4975
     23 C17         4.7333    3.7495    4.3980 C.2       1 <0>         0.3827
     24 O3          3.8681    3.0523    3.9013 O.2       1 <0>        -0.4090
     25 N4          5.7967    3.1789    4.9981 N.am      1 <0>        -0.4232
     26 H1         -1.0205   -0.3814    0.0098 H         1 <0>         0.0772
     27 H2          0.5123   -0.3556   -0.8948 H         1 <0>         0.0819
     28 H3          0.5293   -0.3651    0.8851 H         1 <0>         0.0761
     29 H4          1.0039    1.9031    0.0027 H         1 <0>         0.0942
     30 H5         -0.5459    1.8868   -0.8726 H         1 <0>         0.0976
     31 H6         -1.7574    1.6419    1.2770 H         1 <0>         0.1252
     32 H7         -0.2076    1.6581    2.1523 H         1 <0>         0.1133
     33 H8         -3.6832    5.8227   -0.3468 H         1 <0>         0.1562
     34 H9         -3.5969    8.2779   -0.2665 H         1 <0>         0.1368
     35 H10        -1.7135    9.4278    0.8120 H         1 <0>         0.1370
     36 H11         0.1191    8.1460    1.8302 H         1 <0>         0.1859
     37 H12         2.3767    4.2852    3.0575 H         1 <0>         0.2900
     38 H13         6.5000    5.6662    5.4057 H         1 <0>         0.1379
     39 H14         6.0542    8.1972    5.1868 H         1 <0>         0.1878
     40 H15         6.4862    3.7346    5.3940 H         1 <0>         0.2178
     41 H16         5.8724    2.2125    5.0342 H         1 <0>         0.2293
@<TRIPOS>BOND
     1    1    2 1
     2    1   26 1
     3    1   27 1
     4    1   28 1
     5    2    3 1
     6    2   29 1
     7    2   30 1
     8    3    4 1
     9    3   31 1
    10    3   32 1
    11    4   14 1
    12    4    5 am
    13    5    6 2
    14    5    7 1
    15    7   12 ar
    16    7    8 ar
    17    8    9 ar
    18    8   33 1
    19    9   10 ar
    20    9   34 1
    21   10   11 ar
    22   10   35 1
    23   11   12 ar
    24   11   36 1
    25   12   13 1
    26   13   14 2
    27   13   15 1
    28   15   16 2
    29   15   17 am
    30   17   18 1
    31   17   37 1
    32   18   22 1
    33   18   19 2
    34   19   20 1
    35   19   23 1
    36   20   21 2
    37   20   38 1
    38   21   22 1
    39   21   39 1
    40   23   24 2
    41   23   25 am
    42   25   40 1
    43   25   41 1
@<TRIPOS>MOLECULE
ZINC02628513
   41    42     0     0     0
SMALL
USER_CHARGES

@<TRIPOS>ATOM
      1 C1          2.4161    4.1127    0.0011 C.3       1 <0>        -0.0644
      2 O1          1.1539    3.4428    0.0095 O.3       1 <0>        -0.2065
      3 C2          1.1765    2.0859    0.0020 C.ar      1 <0>         0.1204
      4 C3         -0.0166    1.3728    0.0096 C.ar      1 <0>        -0.1704
      5 C4          0.0021   -0.0041    0.0020 C.ar      1 <0>        -0.0289
      6 C5          1.2226   -0.6843   -0.0133 C.ar      1 <0>        -0.1703
      7 C6          2.4197    0.0363   -0.0208 C.ar      1 <0>        -0.0657
      8 C7          2.3926    1.4130   -0.0132 C.ar      1 <0>        -0.2330
      9 C8          1.2471   -2.1601   -0.0209 C.2       1 <0>         0.3521
     10 O2          0.2045   -2.7855   -0.0140 O.2       1 <0>        -0.3680
     11 N1          2.4253   -2.8144   -0.0357 N.am      1 <0>        -0.3958
     12 C9          2.4497   -4.2792   -0.0433 C.3       1 <0>         0.0004
     13 C10         3.9004   -4.7650   -0.0598 C.3       1 <0>        -0.1505
     14 C11         3.9255   -6.2718   -0.0677 C.ar      1 <0>        -0.0195
     15 C12         3.9544   -6.9688    1.1258 C.ar      1 <0>        -0.1466
     16 C13         3.9729   -8.3510    1.1186 C.ar      1 <0>        -0.0198
     17 C14         3.9719   -9.0361   -0.0820 C.ar      1 <0>        -0.7632
     18 C15         3.9483   -8.3390   -1.2755 C.ar      1 <0>        -0.0264
     19 C16         3.9254   -6.9568   -1.2683 C.ar      1 <0>        -0.1464
     20 S1          4.0000  -10.7978   -0.0912 S.o2      1 <0>         2.7611
     21 O3          3.4688  -11.2190    1.1577 O.2       1 <0>        -0.9171
     22 O4          3.4427  -11.2064   -1.3328 O.2       1 <0>        -0.9124
     23 N2          5.5895  -11.2621   -0.1101 N.pl3     1 <0>        -0.9288
     24 H1          2.9864    3.8244    0.8841 H         1 <0>         0.0696
     25 H2          2.9694    3.8340   -0.8957 H         1 <0>         0.0696
     26 H3          2.2553    5.1908    0.0084 H         1 <0>         0.1118
     27 H4         -0.9595    1.8993    0.0169 H         1 <0>         0.1507
     28 H5         -0.9253   -0.5575    0.0082 H         1 <0>         0.1627
     29 H6          3.3651   -0.4858   -0.0323 H         1 <0>         0.1231
     30 H7          3.3175    1.9707   -0.0193 H         1 <0>         0.1374
     31 H8          3.2571   -2.3155   -0.0412 H         1 <0>         0.2208
     32 H9          1.9507   -4.6555    0.8497 H         1 <0>         0.1010
     33 H10         1.9334   -4.6466   -0.9302 H         1 <0>         0.1009
     34 H11         4.3995   -4.3887   -0.9528 H         1 <0>         0.0952
     35 H12         4.4168   -4.3977    0.8270 H         1 <0>         0.0953
     36 H13         3.9589   -6.4335    2.0638 H         1 <0>         0.1400
     37 H14         3.9910   -8.8956    2.0511 H         1 <0>         0.1543
     38 H15         3.9475   -8.8742   -2.2136 H         1 <0>         0.1532
     39 H16         3.9070   -6.4122   -2.2008 H         1 <0>         0.1398
     40 H17         5.8554  -12.0985    0.3029 H         1 <0>         0.2443
     41 H18         6.2546  -10.6976   -0.5343 H         1 <0>         0.2302
@<TRIPOS>BOND
     1    1    2 1
     2    1   24 1
     3    1   25 1
     4    1   26 1
     5    2    3 1
     6    3    8 ar
     7    3    4 ar
     8    4    5 ar
     9    4   27 1
    10    5    6 ar
    11    5   28 1
    12    6    7 ar
    13    6    9 1
    14    7    8 ar
    15    7   29 1
    16    8   30 1
    17    9   10 2
    18    9   11 am
    19   11   12 1
    20   11   31 1
    21   12   13 1
    22   12   32 1
    23   12   33 1
    24   13   14 1
    25   13   34 1
    26   13   35 1
    27   14   19 ar
    28   14   15 ar
    29   15   16 ar
    30   15   36 1
    31   16   17 ar
    32   16   37 1
    33   17   18 ar
    34   17   20 1
    35   18   19 ar
    36   18   38 1
    37   19   39 1
    38   20   21 2
    39   20   22 2
    40   20   23 1
    41   23   40 1
    42   23   41 1
@<TRIPOS>MOLECULE
ZINC02629084
   37    38     0     0     0
SMALL
USER_CHARGES

@<TRIPOS>ATOM
      1 C1          0.5172    0.7312   -5.3611 C.3       1 <0>        -0.1717
      2 C2         -0.6782    1.5440   -4.9352 C.2       1 <0>        -0.0315
      3 C3         -1.5205    2.1158   -5.8560 C.2       1 <0>        -0.1929
      4 C4         -2.5813    2.8454   -5.4215 C.2       1 <0>        -0.3112
      5 S1         -2.4451    2.7530   -3.6957 S.3       1 <0>         0.3696
      6 C5         -0.9771    1.7440   -3.5966 C.2       1 <0>        -0.3517
      7 C6         -0.2681    1.2584   -2.4090 C.2       1 <0>         0.3953
      8 O1          0.7297    0.5729   -2.5339 O.2       1 <0>        -0.3603
      9 N1         -0.7213    1.5711   -1.1789 N.am      1 <0>        -0.3909
     10 C7         -0.0127    1.0858    0.0080 C.3       1 <0>         0.0016
     11 C8         -0.7288    1.5792    1.2668 C.3       1 <0>        -0.1505
     12 C9          0.0000    1.0800    2.4877 C.ar      1 <0>        -0.0193
     13 C10        -0.3473   -0.1331    3.0522 C.ar      1 <0>        -0.1468
     14 C11         0.3242   -0.5931    4.1695 C.ar      1 <0>        -0.0225
     15 C12         1.3369    0.1643    4.7277 C.ar      1 <0>        -0.7625
     16 C13         1.6808    1.3799    4.1664 C.ar      1 <0>        -0.0226
     17 C14         1.0121    1.8378    3.0465 C.ar      1 <0>        -0.1468
     18 S2          2.1900   -0.4199    6.1545 S.o2      1 <0>         2.7618
     19 O2          2.0481   -1.8338    6.1619 O.2       1 <0>        -0.9156
     20 O3          3.4595    0.2183    6.1584 O.2       1 <0>        -0.9156
     21 N2          1.3723    0.1447    7.4792 N.pl3     1 <0>        -0.9314
     22 H1          0.2270   -0.3142   -5.4660 H         1 <0>         0.0952
     23 H2          0.8877    1.1030   -6.3164 H         1 <0>         0.0763
     24 H3          1.3014    0.8168   -4.6090 H         1 <0>         0.1210
     25 H4         -1.3395    1.9911   -6.9134 H         1 <0>         0.1497
     26 H5         -3.3284    3.3584   -6.0089 H         1 <0>         0.1892
     27 H6         -1.5165    2.1175   -1.0793 H         1 <0>         0.2237
     28 H7          0.0021   -0.0041    0.0020 H         1 <0>         0.1014
     29 H8          1.0099    1.4631    0.0003 H         1 <0>         0.1011
     30 H9         -0.7436    2.6691    1.2728 H         1 <0>         0.0970
     31 H10        -1.7514    1.2020    1.2746 H         1 <0>         0.0970
     32 H11        -1.1411   -0.7231    2.6182 H         1 <0>         0.1404
     33 H12         0.0558   -1.5429    4.6079 H         1 <0>         0.1550
     34 H13         2.4720    1.9716    4.6025 H         1 <0>         0.1549
     35 H14         1.2808    2.7875    2.6079 H         1 <0>         0.1403
     36 H15         0.5788    0.6904    7.3632 H         1 <0>         0.2294
     37 H16         1.6869   -0.0701    8.3713 H         1 <0>         0.2442
@<TRIPOS>BOND
     1    1    2 1
     2    1   22 1
     3    1   23 1
     4    1   24 1
     5    2    6 2
     6    2    3 1
     7    3    4 2
     8    3   25 1
     9    4    5 1
    10    4   26 1
    11    5    6 1
    12    6    7 1
    13    7    8 2
    14    7    9 am
    15    9   10 1
    16    9   27 1
    17   10   11 1
    18   10   28 1
    19   10   29 1
    20   11   12 1
    21   11   30 1
    22   11   31 1
    23   12   17 ar
    24   12   13 ar
    25   13   14 ar
    26   13   32 1
    27   14   15 ar
    28   14   33 1
    29   15   16 ar
    30   15   18 1
    31   16   17 ar
    32   16   34 1
    33   17   35 1
    34   18   19 2
    35   18   20 2
    36   18   21 1
    37   21   36 1
    38   21   37 1
@<TRIPOS>MOLECULE
ZINC02635905
   41    43     0     0     0
SMALL
USER_CHARGES

@<TRIPOS>ATOM
      1 C1         -2.0677   12.1281    0.9114 C.3       1 <0>        -0.1737
      2 C2         -2.1307   10.7257    0.3634 C.ar      1 <0>        -0.0538
      3 C3         -3.2923   10.2681   -0.2311 C.ar      1 <0>        -0.1414
      4 C4         -3.3539    8.9822   -0.7360 C.ar      1 <0>        -0.0531
      5 C5         -2.2546    8.1507   -0.6478 C.ar      1 <0>        -0.1319
      6 C6         -1.0867    8.6072   -0.0510 C.ar      1 <0>         0.0671
      7 C7         -1.0301    9.8970    0.4606 C.ar      1 <0>        -0.1647
      8 N1          0.0287    7.7673    0.0399 N.am      1 <0>        -0.3248
      9 C8         -0.1386    6.4400    0.2033 C.2       1 <0>         0.2977
     10 O1         -1.2507    5.9846    0.3675 O.2       1 <0>        -0.3285
     11 C9          1.0560    5.5216    0.1821 C.3       1 <0>        -0.0239
     12 O2          0.6238    4.1733    0.3750 O.3       1 <0>        -0.2459
     13 C10         1.5781    3.2191    0.3823 C.2       1 <0>         0.3813
     14 O3          2.7456    3.5252    0.2289 O.2       1 <0>        -0.3469
     15 C11         1.2091    1.8174    0.5746 C.2       1 <0>        -0.1589
     16 C12         2.0760    0.7161    0.6065 C.ar      1 <0>        -0.0731
     17 C13         3.4557    0.5088    0.4880 C.ar      1 <0>        -0.0826
     18 C14         3.9528   -0.7551    0.5755 C.ar      1 <0>        -0.1266
     19 C15         3.1198   -1.8546    0.7813 C.ar      1 <0>        -0.1228
     20 C16         1.7737   -1.7206    0.9044 C.ar      1 <0>        -0.0784
     21 C17         1.1927   -0.4393    0.8235 C.ar      1 <0>        -0.0813
     22 N2         -0.0355    0.0434    0.8964 N.2       1 <0>        -0.0697
     23 N3         -0.0465    1.3203    0.7576 N.pl3     1 <0>        -0.0332
     24 H1         -0.8744    1.8806    0.7810 H         1 <0>         0.3039
     25 C18        -4.6217    8.4877   -1.3836 C.3       1 <0>        -0.1731
     26 H2         -2.3843   12.1252    1.9544 H         1 <0>         0.0884
     27 H3         -1.0450   12.4992    0.8432 H         1 <0>         0.0801
     28 H4         -2.7280   12.7743    0.3330 H         1 <0>         0.0832
     29 H5         -4.1531   10.9165   -0.3016 H         1 <0>         0.1321
     30 H6         -2.3031    7.1468   -1.0430 H         1 <0>         0.1584
     31 H7         -0.1249   10.2532    0.9297 H         1 <0>         0.1294
     32 H8          0.9225    8.1404   -0.0147 H         1 <0>         0.2330
     33 H9          1.7431    5.8007    0.9809 H         1 <0>         0.1096
     34 H10         1.5627    5.6068   -0.7793 H         1 <0>         0.1108
     35 H11         4.1200    1.3451    0.3280 H         1 <0>         0.1517
     36 H12         5.0176   -0.9103    0.4839 H         1 <0>         0.1323
     37 H13         3.5572   -2.8400    0.8445 H         1 <0>         0.1328
     38 H14         1.1531   -2.5900    1.0636 H         1 <0>         0.1416
     39 H15        -5.2590    8.0265   -0.6291 H         1 <0>         0.0909
     40 H16        -5.1475    9.3263   -1.8400 H         1 <0>         0.0801
     41 H17        -4.3755    7.7527   -2.1499 H         1 <0>         0.0839
@<TRIPOS>BOND
     1    1    2 1
     2    1   26 1
     3    1   27 1
     4    1   28 1
     5    2    7 ar
     6    2    3 ar
     7    3    4 ar
     8    3   29 1
     9    4    5 ar
    10    4   25 1
    11    5    6 ar
    12    5   30 1
    13    6    7 ar
    14    6    8 1
    15    7   31 1
    16    8    9 am
    17    8   32 1
    18    9   10 2
    19    9   11 1
    20   11   12 1
    21   11   33 1
    22   11   34 1
    23   12   13 1
    24   13   14 2
    25   13   15 1
    26   15   23 1
    27   15   16 2
    28   16   21 ar
    29   16   17 ar
    30   17   18 ar
    31   17   35 1
    32   18   19 ar
    33   18   36 1
    34   19   20 ar
    35   19   37 1
    36   20   21 ar
    37   20   38 1
    38   21   22 2
    39   22   23 1
    40   23   24 1
    41   25   39 1
    42   25   40 1
    43   25   41 1
@<TRIPOS>MOLECULE
ZINC02636591
   36    38     0     0     0
SMALL
USER_CHARGES

@<TRIPOS>ATOM
      1 C1          2.5053   -0.3416   -0.0137 C.3       1 <0>        -0.1738
      2 C2          1.0914   -0.8632   -0.0073 C.2       1 <0>        -0.0258
      3 C3          0.8247   -2.2091   -0.0123 C.2       1 <0>        -0.2030
      4 C4         -0.4679   -2.6296   -0.0132 C.2       1 <0>        -0.3229
      5 S1         -1.3667   -1.1472    0.0009 S.3       1 <0>         0.4676
      6 C5          0.0028   -0.0037    0.0077 C.2       1 <0>        -0.3508
      7 C6         -0.0172    1.4600    0.0194 C.2       1 <0>         0.4014
      8 O1          1.0277    2.0825    0.0221 O.2       1 <0>        -0.3630
      9 O2         -1.1946    2.1184    0.0217 O.3       1 <0>        -0.2315
     10 C7         -1.1385    3.5693    0.0336 C.3       1 <0>        -0.0226
     11 C8         -2.5388    4.1262    0.0344 C.2       1 <0>         0.2975
     12 O3         -3.4905    3.3743    0.0259 O.2       1 <0>        -0.3241
     13 N1         -2.7337    5.4597    0.0447 N.am      1 <0>        -0.3257
     14 C9         -4.0312    5.9788   -0.0521 C.ar      1 <0>         0.0647
     15 C10        -4.2535    7.1678   -0.7375 C.ar      1 <0>        -0.1537
     16 C11        -5.5305    7.6812   -0.8415 C.ar      1 <0>        -0.1082
     17 C12        -6.5942    7.0160   -0.2506 C.ar      1 <0>        -0.0136
     18 C13        -6.3734    5.8246    0.4434 C.ar      1 <0>         0.0187
     19 C14        -5.0907    5.3085    0.5409 C.ar      1 <0>        -0.1247
     20 N2         -7.6123    5.3985    0.9166 N.am      1 <0>        -0.2926
     21 H1         -7.7756    4.5966    1.4373 H         1 <0>         0.2712
     22 C15        -8.5444    6.2891    0.5288 C.2       1 <0>         0.3903
     23 O4         -9.7331    6.2128    0.7781 O.2       1 <0>        -0.3827
     24 N3         -7.9623    7.2767   -0.1772 N.am      1 <0>        -0.2968
     25 H2         -8.4167    8.0396   -0.5675 H         1 <0>         0.2676
     26 H3          2.8538   -0.2240    1.0123 H         1 <0>         0.0954
     27 H4          3.1503   -1.0466   -0.5380 H         1 <0>         0.0796
     28 H5          2.5343    0.6232   -0.5201 H         1 <0>         0.1158
     29 H6          1.6324   -2.9260   -0.0203 H         1 <0>         0.1498
     30 H7         -0.8439   -3.6420   -0.0204 H         1 <0>         0.1908
     31 H8         -0.6133    3.9053    0.9277 H         1 <0>         0.1098
     32 H9         -0.6087    3.9197   -0.8522 H         1 <0>         0.1120
     33 H10        -1.9755    6.0601    0.1191 H         1 <0>         0.2350
     34 H11        -3.4250    7.6888   -1.1941 H         1 <0>         0.1369
     35 H12        -5.7005    8.6026   -1.3788 H         1 <0>         0.1385
     36 H13        -4.9167    4.3874    1.0773 H         1 <0>         0.1726
@<TRIPOS>BOND
     1    1    2 1
     2    1   26 1
     3    1   27 1
     4    1   28 1
     5    2    6 2
     6    2    3 1
     7    3    4 2
     8    3   29 1
     9    4    5 1
    10    4   30 1
    11    5    6 1
    12    6    7 1
    13    7    8 2
    14    7    9 1
    15    9   10 1
    16   10   11 1
    17   10   31 1
    18   10   32 1
    19   11   12 2
    20   11   13 am
    21   13   14 1
    22   13   33 1
    23   14   19 ar
    24   14   15 ar
    25   15   16 ar
    26   15   34 1
    27   16   17 ar
    28   16   35 1
    29   17   24 1
    30   17   18 ar
    31   18   19 ar
    32   18   20 1
    33   19   36 1
    34   20   21 1
    35   20   22 am
    36   22   23 2
    37   22   24 am
    38   24   25 1
@<TRIPOS>MOLECULE
ZINC02636918
   43    45     0     0     0
SMALL
USER_CHARGES

@<TRIPOS>ATOM
      1 C1         11.7594    9.8023   -0.0611 C.3       1 <0>        -0.1773
      2 C2         10.6682    8.7630   -0.0556 C.ar      1 <0>        -0.0653
      3 C3         10.5069    7.9261   -1.1445 C.ar      1 <0>        -0.1229
      4 C4          9.5077    6.9725   -1.1424 C.ar      1 <0>        -0.1149
      5 C5          8.6648    6.8548   -0.0455 C.ar      1 <0>         0.0198
      6 C6          8.8259    7.7000    1.0442 C.ar      1 <0>        -0.1151
      7 C7          9.8300    8.6484    1.0382 C.ar      1 <0>        -0.1224
      8 N1          7.6496    5.8884   -0.0405 N.pl3     1 <0>        -0.0641
      9 C8          7.8581    4.5373   -0.0496 C.2       1 <0>        -0.0783
     10 C9          6.6712    3.9081   -0.0412 C.2       1 <0>        -0.1630
     11 C10         5.6444    4.9590   -0.0258 C.2       1 <0>        -0.2564
     12 C11         6.3300    6.1593   -0.0318 C.2       1 <0>         0.0229
     13 C12         5.7092    7.5325   -0.0264 C.3       1 <0>        -0.1608
     14 C13         4.1921    4.7729   -0.0130 C.2       1 <0>         0.3221
     15 O1          3.4568    5.7382   -0.0012 O.2       1 <0>        -0.3082
     16 C14         3.6105    3.3827   -0.0145 C.3       1 <0>        -0.2954
     17 S1          1.7994    3.4848    0.0031 S.3       1 <0>         0.2689
     18 C15         1.2775    1.8019   -0.0005 C.2       1 <0>        -0.1924
     19 N2         -0.0164    1.3619    0.0095 N.pl3     1 <0>        -0.2476
     20 H1         -0.8089    1.9213    0.0165 H         1 <0>         0.2446
     21 C16         0.0021   -0.0041    0.0020 C.2       1 <0>         0.1202
     22 N3          1.2534   -0.3924   -0.0120 N.2       1 <0>        -0.1638
     23 N4          2.0620    0.7517   -0.0136 N.2       1 <0>        -0.1066
     24 N5         -1.1105   -0.8355    0.0082 N.pl3     1 <0>        -0.4013
     25 C17         9.2049    3.8614   -0.0658 C.3       1 <0>        -0.1479
     26 H2         11.3759   10.7296   -0.4867 H         1 <0>         0.0910
     27 H3         12.0946    9.9827    0.9603 H         1 <0>         0.0853
     28 H4         12.5971    9.4464   -0.6608 H         1 <0>         0.0851
     29 H5         11.1632    8.0179   -1.9973 H         1 <0>         0.1389
     30 H6          9.3820    6.3194   -1.9933 H         1 <0>         0.1453
     31 H7          8.1691    7.6134    1.8971 H         1 <0>         0.1456
     32 H8          9.9579    9.3039    1.8869 H         1 <0>         0.1392
     33 H9          6.5047    2.8410   -0.0455 H         1 <0>         0.1597
     34 H10         5.5689    7.8637    1.0025 H         1 <0>         0.0949
     35 H11         6.3657    8.2301   -0.5464 H         1 <0>         0.0822
     36 H12         4.7439    7.4967   -0.5314 H         1 <0>         0.1263
     37 H13         3.9244    2.8892    0.7966 H         1 <0>         0.1281
     38 H14         3.9359    2.8537   -0.9103 H         1 <0>         0.1393
     39 H15        -2.0018   -0.4529    0.0187 H         1 <0>         0.2243
     40 H16        -0.9962   -1.7987    0.0019 H         1 <0>         0.2540
     41 H17         9.5200    3.7039   -1.0973 H         1 <0>         0.0855
     42 H18         9.9337    4.4912    0.4446 H         1 <0>         0.0855
     43 H19         9.1353    2.9003    0.4437 H         1 <0>         0.0954
@<TRIPOS>BOND
     1    1    2 1
     2    1   26 1
     3    1   27 1
     4    1   28 1
     5    2    7 ar
     6    2    3 ar
     7    3    4 ar
     8    3   29 1
     9    4    5 ar
    10    4   30 1
    11    5    6 ar
    12    5    8 1
    13    6    7 ar
    14    6   31 1
    15    7   32 1
    16    8   12 1
    17    8    9 1
    18    9   10 2
    19    9   25 1
    20   10   11 1
    21   10   33 1
    22   11   12 2
    23   11   14 1
    24   12   13 1
    25   13   34 1
    26   13   35 1
    27   13   36 1
    28   14   15 2
    29   14   16 1
    30   16   17 1
    31   16   37 1
    32   16   38 1
    33   17   18 1
    34   18   23 2
    35   18   19 1
    36   19   20 1
    37   19   21 1
    38   21   22 2
    39   21   24 1
    40   22   23 1
    41   24   39 1
    42   24   40 1
    43   25   41 1
    44   25   42 1
    45   25   43 1
@<TRIPOS>MOLECULE
ZINC02637648
   43    46     0     0     0
SMALL
USER_CHARGES

@<TRIPOS>ATOM
      1 C1          1.7374    3.2932    0.0032 C.3       1 <0>        -0.1489
      2 C2          1.2657    1.8619   -0.0000 C.2       1 <0>        -0.0774
      3 C3         -0.0178    1.4650    0.0101 C.2       1 <0>        -0.1612
      4 C4          0.0021   -0.0041    0.0020 C.2       1 <0>        -0.2534
      5 C5          1.3367   -0.3651   -0.0127 C.2       1 <0>         0.0221
      6 N1          2.0756    0.7609   -0.0137 N.pl3     1 <0>        -0.0638
      7 C6          3.4777    0.7984   -0.0261 C.ar      1 <0>         0.0308
      8 C7          4.1753    0.3146   -1.1246 C.ar      1 <0>        -0.1164
      9 C8          5.5562    0.3512   -1.1387 C.ar      1 <0>        -0.1080
     10 C9          6.2491    0.8704   -0.0567 C.ar      1 <0>         0.0127
     11 C10         5.5518    1.3562    1.0470 C.ar      1 <0>         0.0114
     12 C11         4.1675    1.3245    1.0573 C.ar      1 <0>        -0.1083
     13 O1          6.4526    1.8079    1.9679 O.3       1 <0>        -0.2026
     14 C12         7.7128    1.2208    1.5934 C.3       1 <0>         0.1067
     15 O2          7.5871    1.0181    0.1734 O.3       1 <0>        -0.2033
     16 C13         1.8717   -1.7738   -0.0261 C.3       1 <0>        -0.1611
     17 C14        -1.1544   -0.9019    0.0087 C.2       1 <0>         0.3219
     18 O3         -0.9893   -2.1041    0.0010 O.2       1 <0>        -0.3069
     19 C15        -2.5499   -0.3331    0.0250 C.3       1 <0>        -0.2957
     20 S1         -3.7554   -1.6885    0.0298 S.3       1 <0>         0.2696
     21 C16        -5.3161   -0.8709    0.0490 C.2       1 <0>        -0.1928
     22 N2         -6.5409   -1.4774    0.0577 N.pl3     1 <0>        -0.2475
     23 H1         -6.7036   -2.4336    0.0535 H         1 <0>         0.2447
     24 C17        -7.4956   -0.5004    0.0727 C.2       1 <0>         0.1207
     25 N3         -6.8878    0.6603    0.0732 N.2       1 <0>        -0.1636
     26 N4         -5.5066    0.4260    0.0631 N.2       1 <0>        -0.1065
     27 N5         -8.8698   -0.7022    0.0856 N.pl3     1 <0>        -0.4011
     28 H2          1.8614    3.6326    1.0315 H         1 <0>         0.0878
     29 H3          2.6912    3.3626   -0.5198 H         1 <0>         0.0859
     30 H4          1.0008    3.9196   -0.4999 H         1 <0>         0.0965
     31 H5         -0.8913    2.1001    0.0179 H         1 <0>         0.1612
     32 H6          3.6378   -0.0906   -1.9692 H         1 <0>         0.1552
     33 H7          6.0968   -0.0252   -1.9946 H         1 <0>         0.1528
     34 H8          3.6248    1.7054    1.9098 H         1 <0>         0.1597
     35 H9          7.8590    0.2693    2.1046 H         1 <0>         0.0927
     36 H10         8.5335    1.9040    1.8115 H         1 <0>         0.1353
     37 H11         1.9906   -2.1075   -1.0569 H         1 <0>         0.0952
     38 H12         2.8377   -1.8005    0.4782 H         1 <0>         0.0812
     39 H13         1.1737   -2.4325    0.4908 H         1 <0>         0.1278
     40 H14        -2.6728    0.2251    0.8456 H         1 <0>         0.1283
     41 H15        -2.7009    0.2844   -0.8605 H         1 <0>         0.1397
     42 H16        -9.2276   -1.6038    0.0845 H         1 <0>         0.2244
     43 H17        -9.4716    0.0585    0.0958 H         1 <0>         0.2541
@<TRIPOS>BOND
     1    1    2 1
     2    1   28 1
     3    1   29 1
     4    1   30 1
     5    2    6 1
     6    2    3 2
     7    3    4 1
     8    3   31 1
     9    4    5 2
    10    4   17 1
    11    5    6 1
    12    5   16 1
    13    6    7 1
    14    7   12 ar
    15    7    8 ar
    16    8    9 ar
    17    8   32 1
    18    9   10 ar
    19    9   33 1
    20   10   15 1
    21   10   11 ar
    22   11   12 ar
    23   11   13 1
    24   12   34 1
    25   13   14 1
    26   14   15 1
    27   14   35 1
    28   14   36 1
    29   16   37 1
    30   16   38 1
    31   16   39 1
    32   17   18 2
    33   17   19 1
    34   19   20 1
    35   19   40 1
    36   19   41 1
    37   20   21 1
    38   21   26 2
    39   21   22 1
    40   22   23 1
    41   22   24 1
    42   24   25 2
    43   24   27 1
    44   25   26 1
    45   27   42 1
    46   27   43 1
@<TRIPOS>MOLECULE
ZINC02639567
   38    40     0     0     0
SMALL
USER_CHARGES

@<TRIPOS>ATOM
      1 C1         -3.2866   -3.1244   -1.4415 C.3       1 <0>        -0.2331
      2 C2         -3.3360   -2.6254    0.0040 C.3       1 <0>        -0.0101
      3 N1         -3.4991   -1.1696    0.0127 N.am      1 <0>        -0.1759
      4 C3         -4.7510   -0.6676    0.0223 C.2       1 <0>         0.3111
      5 O1         -5.7184   -1.4067    0.0233 O.2       1 <0>        -0.3368
      6 C4         -4.9201    0.7921    0.0311 C.ar      1 <0>        -0.1311
      7 C5         -6.1674    1.4085    0.0418 C.ar      1 <0>        -0.0643
      8 C6         -6.2405    2.7852    0.0501 C.ar      1 <0>        -0.1344
      9 C7         -5.0863    3.5574    0.0483 C.ar      1 <0>        -0.1026
     10 C8         -3.8409    2.9655    0.0383 C.ar      1 <0>        -0.1135
     11 C9         -3.7446    1.5783    0.0346 C.ar      1 <0>        -0.0263
     12 C10        -2.4552    0.8686    0.0184 C.2       1 <0>        -0.1324
     13 N2         -2.4464   -0.4425    0.0112 N.2       1 <0>        -0.0036
     14 C11        -1.1873    1.6238    0.0165 C.2       1 <0>         0.3776
     15 O2         -1.2038    2.8396    0.0232 O.2       1 <0>        -0.3512
     16 N3         -0.0111    0.9658    0.0074 N.am      1 <0>        -0.2439
     17 C12         1.1790    1.6747   -0.0002 C.2       1 <0>        -0.0872
     18 C13         2.4785    1.1806   -0.0096 C.2       1 <0>        -0.2718
     19 C14         3.5433    2.1552   -0.0197 C.2       1 <0>        -0.1274
     20 C15         3.1884    3.4527   -0.0090 C.2       1 <0>        -0.3773
     21 S1          1.4088    3.3909    0.0074 S.3       1 <0>         0.4976
     22 C16         2.7538   -0.2594   -0.0128 C.2       1 <0>         0.3827
     23 O3          1.8328   -1.0551   -0.0072 O.2       1 <0>        -0.4091
     24 N4          4.0268   -0.7021   -0.0219 N.am      1 <0>        -0.4232
     25 H1         -4.2141   -2.8597   -1.9492 H         1 <0>         0.0917
     26 H2         -2.4453   -2.6615   -1.9572 H         1 <0>         0.0884
     27 H3         -3.1653   -4.2076   -1.4481 H         1 <0>         0.0902
     28 H4         -2.4084   -2.8902    0.5116 H         1 <0>         0.1124
     29 H5         -4.1773   -3.0884    0.5196 H         1 <0>         0.1245
     30 H6         -7.0693    0.8144    0.0439 H         1 <0>         0.1563
     31 H7         -7.2063    3.2686    0.0583 H         1 <0>         0.1368
     32 H8         -5.1650    4.6345    0.0553 H         1 <0>         0.1371
     33 H9         -2.9485    3.5737    0.0370 H         1 <0>         0.1859
     34 H10         0.0021   -0.0041    0.0020 H         1 <0>         0.2900
     35 H11         4.5808    1.8554   -0.0311 H         1 <0>         0.1380
     36 H12         3.8287    4.3225   -0.0105 H         1 <0>         0.1878
     37 H13         4.7608   -0.0679   -0.0264 H         1 <0>         0.2178
     38 H14         4.2090   -1.6548   -0.0240 H         1 <0>         0.2293
@<TRIPOS>BOND
     1    1    2 1
     2    1   25 1
     3    1   26 1
     4    1   27 1
     5    2    3 1
     6    2   28 1
     7    2   29 1
     8    3   13 1
     9    3    4 am
    10    4    5 2
    11    4    6 1
    12    6   11 ar
    13    6    7 ar
    14    7    8 ar
    15    7   30 1
    16    8    9 ar
    17    8   31 1
    18    9   10 ar
    19    9   32 1
    20   10   11 ar
    21   10   33 1
    22   11   12 1
    23   12   13 2
    24   12   14 1
    25   14   15 2
    26   14   16 am
    27   16   17 1
    28   16   34 1
    29   17   21 1
    30   17   18 2
    31   18   19 1
    32   18   22 1
    33   19   20 2
    34   19   35 1
    35   20   21 1
    36   20   36 1
    37   22   23 2
    38   22   24 am
    39   24   37 1
    40   24   38 1
@<TRIPOS>MOLECULE
ZINC02640211
   37    40     0     0     0
SMALL
USER_CHARGES

@<TRIPOS>ATOM
      1 C1          1.5984   -1.4932   13.8314 C.3       1 <0>        -0.2070
      2 C2          0.1509   -1.4764   13.3362 C.3       1 <0>        -0.1228
      3 C3          0.1353   -1.3690   11.8332 C.ar      1 <0>        -0.0642
      4 C4          0.1122   -0.1247   11.2196 C.ar      1 <0>        -0.1252
      5 C5          0.0977    0.0008    9.8552 C.ar      1 <0>        -0.0698
      6 C6          0.1049   -1.1435    9.0242 C.ar      1 <0>        -0.0025
      7 C7          0.1285   -2.3936    9.6838 C.ar      1 <0>        -0.2444
      8 C8          0.1433   -2.5094   11.0513 C.ar      1 <0>        -0.0800
      9 S1          0.1231   -3.5382    8.3250 S.3       1 <0>         0.2339
     10 C9          0.1016   -2.3269    7.0110 C.2       1 <0>        -0.0001
     11 N1          0.0925   -1.1942    7.6747 N.2       1 <0>        -0.1892
     12 N2          0.0911   -2.5311    5.6419 N.am      1 <0>        -0.2757
     13 C10         0.0690   -1.4762    4.8034 C.2       1 <0>         0.3392
     14 O1          0.0582   -0.3453    5.2494 O.2       1 <0>        -0.2835
     15 C11         0.0578   -1.6940    3.3430 C.ar      1 <0>        -0.1135
     16 C12         0.0702   -3.0000    2.8310 C.ar      1 <0>        -0.1217
     17 C13         0.0596   -3.2166    1.4869 C.ar      1 <0>        -0.0640
     18 C14         0.0362   -2.1315    0.6039 C.ar      1 <0>        -0.0733
     19 C15         0.0236   -0.8163    1.1096 C.ar      1 <0>        -0.0903
     20 C16         0.0341   -0.6028    2.4792 C.ar      1 <0>        -0.0358
     21 N3          0.0021   -0.0041    0.0020 N.pl3     1 <0>        -0.0162
     22 N4         -0.0033   -0.7546   -1.0449 N.2       1 <0>         0.0489
     23 N5          0.0215   -2.0035   -0.7373 N.2       1 <0>        -0.0866
     24 O2         -0.0171    1.4118    0.0098 O.3       1 <0>        -0.1299
     25 H1          1.6097   -1.5709   14.9185 H         1 <0>         0.0750
     26 H2          2.1198   -2.3480   13.4006 H         1 <0>         0.0780
     27 H3          2.0970   -0.5727   13.5277 H         1 <0>         0.0787
     28 H4         -0.3705   -0.6216   13.7670 H         1 <0>         0.0902
     29 H5         -0.3478   -2.3968   13.6399 H         1 <0>         0.0888
     30 H6          0.1060    0.7653   11.8314 H         1 <0>         0.1363
     31 H7          0.0799    0.9844    9.4095 H         1 <0>         0.1492
     32 H8          0.1609   -3.4852   11.5138 H         1 <0>         0.1386
     33 H9          0.0996   -3.4334    5.2861 H         1 <0>         0.2510
     34 H10         0.0886   -3.8407    3.5087 H         1 <0>         0.1318
     35 H11         0.0697   -4.2258    1.1023 H         1 <0>         0.1549
     36 H12         0.0247    0.4028    2.8731 H         1 <0>         0.1688
     37 H13         0.8608    1.8171    0.0036 H         1 <0>         0.2324
@<TRIPOS>BOND
     1    1    2 1
     2    1   25 1
     3    1   26 1
     4    1   27 1
     5    2    3 1
     6    2   28 1
     7    2   29 1
     8    3    8 ar
     9    3    4 ar
    10    4    5 ar
    11    4   30 1
    12    5    6 ar
    13    5   31 1
    14    6   11 1
    15    6    7 ar
    16    7    8 ar
    17    7    9 1
    18    8   32 1
    19    9   10 1
    20   10   11 2
    21   10   12 1
    22   12   13 am
    23   12   33 1
    24   13   14 2
    25   13   15 1
    26   15   20 ar
    27   15   16 ar
    28   16   17 ar
    29   16   34 1
    30   17   18 ar
    31   17   35 1
    32   18   23 1
    33   18   19 ar
    34   19   20 ar
    35   19   21 1
    36   20   36 1
    37   21   22 1
    38   21   24 1
    39   22   23 2
    40   24   37 1
@<TRIPOS>MOLECULE
ZINC02643434
   43    45     0     0     0
SMALL
USER_CHARGES

@<TRIPOS>ATOM
      1 C1          1.6625   -1.9344   -0.0235 C.3       1 <0>        -0.1340
      2 C2          1.2541   -0.4838   -0.0125 C.2       1 <0>        -0.0899
      3 C3          2.0788    0.5880   -0.0146 C.2       1 <0>        -0.2341
      4 C4          1.1955    1.7000   -0.0002 C.2       1 <0>         0.0050
      5 N1         -0.0143    1.2049    0.0087 N.2       1 <0>        -0.0789
      6 O1          0.0021   -0.0041    0.0020 O.3       1 <0>         0.0472
      7 N2          1.5481    3.0497    0.0032 N.am      1 <0>        -0.2862
      8 C5          2.8476    3.4068   -0.0077 C.2       1 <0>         0.2969
      9 O2          3.7105    2.5547   -0.0205 O.2       1 <0>        -0.3378
     10 C6          3.2285    4.8648   -0.0039 C.3       1 <0>        -0.0163
     11 N3          4.6883    4.9883   -0.0176 N.am      1 <0>        -0.3101
     12 C7          5.4531    5.0516    1.0902 C.2       1 <0>         0.3177
     13 O3          5.0773    5.0185    2.2423 O.2       1 <0>        -0.2968
     14 C8          6.8811    5.1710    0.5959 C.3       1 <0>        -0.0188
     15 H1          7.3249    6.1064    0.9369 H         1 <0>         0.1277
     16 N4          6.7413    5.1680   -0.8705 N.am      1 <0>        -0.3970
     17 C9          5.4262    5.0577   -1.1315 C.2       1 <0>         0.4105
     18 O4          4.9605    5.0249   -2.2536 O.2       1 <0>        -0.3709
     19 C10         7.7204    3.9786    1.0591 C.3       1 <0>        -0.1612
     20 C11         9.1575    4.1419    0.5602 C.3       1 <0>        -0.1204
     21 C12         9.9842    2.9673    1.0164 C.ar      1 <0>        -0.0804
     22 C13        10.6496    3.0191    2.2269 C.ar      1 <0>        -0.1226
     23 C14        11.4040    1.9398    2.6477 C.ar      1 <0>        -0.1243
     24 C15        11.5015    0.8129    1.8530 C.ar      1 <0>        -0.1269
     25 C16        10.8403    0.7632    0.6400 C.ar      1 <0>        -0.1239
     26 C17        10.0817    1.8404    0.2217 C.ar      1 <0>        -0.1212
     27 H2          0.7718   -2.5627   -0.0182 H         1 <0>         0.0946
     28 H3          2.2472   -2.1405   -0.9200 H         1 <0>         0.1010
     29 H4          2.2639   -2.1492    0.8599 H         1 <0>         0.1008
     30 H5          3.1588    0.5964   -0.0249 H         1 <0>         0.2080
     31 H6          0.8579    3.7313    0.0135 H         1 <0>         0.2437
     32 H7          2.8145    5.3508   -0.8874 H         1 <0>         0.1379
     33 H8          2.8320    5.3416    0.8925 H         1 <0>         0.1312
     34 H9          7.4579    5.2324   -1.5212 H         1 <0>         0.2774
     35 H10         7.7169    3.9329    2.1482 H         1 <0>         0.1134
     36 H11         7.2980    3.0583    0.6555 H         1 <0>         0.1128
     37 H12         9.1610    4.1875   -0.5289 H         1 <0>         0.0854
     38 H13         9.5799    5.0621    0.9638 H         1 <0>         0.0884
     39 H14        10.5771    3.9013    2.8457 H         1 <0>         0.1294
     40 H15        11.9209    1.9788    3.5951 H         1 <0>         0.1306
     41 H16        12.0944   -0.0285    2.1796 H         1 <0>         0.1301
     42 H17        10.9167   -0.1171    0.0190 H         1 <0>         0.1310
     43 H18         9.5654    1.8018   -0.7261 H         1 <0>         0.1313
@<TRIPOS>BOND
     1    1    2 1
     2    1   27 1
     3    1   28 1
     4    1   29 1
     5    2    6 1
     6    2    3 2
     7    3    4 1
     8    3   30 1
     9    4    5 2
    10    4    7 1
    11    5    6 1
    12    7    8 am
    13    7   31 1
    14    8    9 2
    15    8   10 1
    16   10   11 1
    17   10   32 1
    18   10   33 1
    19   11   17 am
    20   11   12 am
    21   12   13 2
    22   12   14 1
    23   14   15 1
    24   14   16 1
    25   14   19 1
    26   16   17 am
    27   16   34 1
    28   17   18 2
    29   19   20 1
    30   19   35 1
    31   19   36 1
    32   20   21 1
    33   20   37 1
    34   20   38 1
    35   21   26 ar
    36   21   22 ar
    37   22   23 ar
    38   22   39 1
    39   23   24 ar
    40   23   40 1
    41   24   25 ar
    42   24   41 1
    43   25   26 ar
    44   25   42 1
    45   26   43 1
@<TRIPOS>MOLECULE
ZINC02644838
   41    42     0     0     0
SMALL
USER_CHARGES

@<TRIPOS>ATOM
      1 C1         -0.0127    1.0858    0.0080 C.3       1 <0>        -0.3772
      2 S1         -0.8618    1.6708    1.5005 S.3       1 <0>         0.2901
      3 C2          0.0987    1.0127    2.8230 C.ar      1 <0>        -0.1459
      4 C3          1.2196    0.2354    2.5535 C.ar      1 <0>        -0.1625
      5 C4          1.9725   -0.2741    3.5905 C.ar      1 <0>        -0.0843
      6 C5          1.6141   -0.0257    4.9067 C.ar      1 <0>        -0.1543
      7 C6          0.5039    0.7371    5.1940 C.ar      1 <0>        -0.0860
      8 C7         -0.2670    1.2654    4.1550 C.ar      1 <0>        -0.1299
      9 C8         -1.4560    2.0830    4.4554 C.2       1 <0>         0.3452
     10 O1         -2.1238    2.5412    3.5482 O.2       1 <0>        -0.3468
     11 N1         -1.8030    2.3229    5.7354 N.am      1 <0>        -0.3929
     12 C9         -2.9848    3.1356    6.0340 C.3       1 <0>         0.0002
     13 C10        -3.1533    3.2530    7.5501 C.3       1 <0>        -0.1506
     14 C11        -4.3689    4.0890    7.8572 C.ar      1 <0>        -0.0188
     15 C12        -4.2474    5.4583    8.0026 C.ar      1 <0>        -0.1468
     16 C13        -5.3633    6.2256    8.2800 C.ar      1 <0>        -0.0225
     17 C14        -6.5991    5.6226    8.4210 C.ar      1 <0>        -0.7627
     18 C15        -6.7198    4.2526    8.2808 C.ar      1 <0>        -0.0226
     19 C16        -5.6046    3.4858    7.9991 C.ar      1 <0>        -0.1468
     20 S2         -8.0207    6.6001    8.7789 S.o2      1 <0>         2.7617
     21 O2         -7.7350    7.9149    8.3218 O.2       1 <0>        -0.9156
     22 O3         -9.1462    5.8626    8.3222 O.2       1 <0>        -0.9156
     23 N2         -8.1509    6.6899   10.4273 N.pl3     1 <0>        -0.9314
     24 H1          0.0021   -0.0041    0.0020 H         1 <0>         0.0929
     25 H2          1.0099    1.4631    0.0003 H         1 <0>         0.0930
     26 H3         -0.5399    1.4469   -0.8751 H         1 <0>         0.1211
     27 H4          1.5033    0.0338    1.5310 H         1 <0>         0.1393
     28 H5          2.8445   -0.8741    3.3761 H         1 <0>         0.1327
     29 H6          2.2086   -0.4331    5.7111 H         1 <0>         0.1325
     30 H7          0.2293    0.9266    6.2212 H         1 <0>         0.1243
     31 H8         -1.2703    1.9575    6.4590 H         1 <0>         0.2220
     32 H9         -2.8603    4.1295    5.6042 H         1 <0>         0.1016
     33 H10        -3.8686    2.6627    5.6057 H         1 <0>         0.1016
     34 H11        -3.2778    2.2591    7.9799 H         1 <0>         0.0957
     35 H12        -2.2695    3.7259    7.9784 H         1 <0>         0.0957
     36 H13        -3.2812    5.9290    7.8962 H         1 <0>         0.1403
     37 H14        -5.2691    7.2959    8.3892 H         1 <0>         0.1548
     38 H15        -7.6853    3.7815    8.3909 H         1 <0>         0.1548
     39 H16        -5.6989    2.4155    7.8896 H         1 <0>         0.1403
     40 H17        -7.5000    6.2424   10.9903 H         1 <0>         0.2293
     41 H18        -8.8780    7.1900   10.8299 H         1 <0>         0.2441
@<TRIPOS>BOND
     1    1    2 1
     2    1   24 1
     3    1   25 1
     4    1   26 1
     5    2    3 1
     6    3    8 ar
     7    3    4 ar
     8    4    5 ar
     9    4   27 1
    10    5    6 ar
    11    5   28 1
    12    6    7 ar
    13    6   29 1
    14    7    8 ar
    15    7   30 1
    16    8    9 1
    17    9   10 2
    18    9   11 am
    19   11   12 1
    20   11   31 1
    21   12   13 1
    22   12   32 1
    23   12   33 1
    24   13   14 1
    25   13   34 1
    26   13   35 1
    27   14   19 ar
    28   14   15 ar
    29   15   16 ar
    30   15   36 1
    31   16   17 ar
    32   16   37 1
    33   17   18 ar
    34   17   20 1
    35   18   19 ar
    36   18   38 1
    37   19   39 1
    38   20   21 2
    39   20   22 2
    40   20   23 1
    41   23   40 1
    42   23   41 1
@<TRIPOS>MOLECULE
ZINC02646102
   41    43     0     0     0
SMALL
USER_CHARGES

@<TRIPOS>ATOM
      1 C1         -0.0127    1.0858    0.0080 C.3       1 <0>        -0.0613
      2 O1         -0.6816    1.5467    1.1837 O.3       1 <0>        -0.2138
      3 C2         -0.7875    2.8926    1.3463 C.ar      1 <0>         0.0572
      4 C3         -0.2523    3.7495    0.3946 C.ar      1 <0>        -0.1754
      5 C4         -0.3613    5.1186    0.5506 C.ar      1 <0>        -0.1908
      6 C5         -0.9958    5.6429    1.6643 C.ar      1 <0>         0.0899
      7 C6         -1.5317    4.7848    2.6289 C.ar      1 <0>        -0.0120
      8 C7         -1.4240    3.4058    2.4638 C.ar      1 <0>        -0.1128
      9 C8         -2.2127    5.3404    3.8234 C.2       1 <0>         0.0112
     10 C9         -2.7385    4.5046    4.7689 C.2       1 <0>        -0.3830
     11 S1         -3.4050    5.6924    5.9275 S.3       1 <0>         0.3855
     12 C10        -2.9187    7.1662    5.0405 C.2       1 <0>        -0.0586
     13 N1         -2.3124    6.6510    3.9868 N.2       1 <0>        -0.2045
     14 N2         -3.1203    8.4986    5.3737 N.am      1 <0>        -0.2643
     15 C11        -3.7672    8.8181    6.5121 C.2       1 <0>         0.3511
     16 O2         -4.1743    7.9392    7.2473 O.2       1 <0>        -0.3217
     17 C12        -3.9815   10.2342    6.8662 C.2       1 <0>        -0.0044
     18 C13        -4.6208   10.5425    7.9912 C.2       1 <0>        -0.1803
     19 C14        -4.8723   11.9641    8.4001 C.3       1 <0>        -0.1365
     20 C15        -4.0000   12.9152    7.6340 C.2       1 <0>         0.3097
     21 O3         -3.8506   14.0449    8.0494 O.2       1 <0>        -0.3585
     22 N3         -3.3806   12.5479    6.4996 N.am      1 <0>        -0.2645
     23 N4         -3.5056   11.2397    6.0189 N.pl3     1 <0>        -0.2964
     24 O4         -1.0970    6.9899    1.8194 O.3       1 <0>        -0.1727
     25 C16        -0.5265    7.8056    0.7942 C.3       1 <0>        -0.0702
     26 H1          0.0021   -0.0041    0.0020 H         1 <0>         0.1077
     27 H2          1.0099    1.4631    0.0003 H         1 <0>         0.0664
     28 H3         -0.5399    1.4469   -0.8751 H         1 <0>         0.0664
     29 H4          0.2475    3.3450   -0.4732 H         1 <0>         0.1354
     30 H5          0.0533    5.7807   -0.1951 H         1 <0>         0.1371
     31 H6         -1.8359    2.7382    3.2061 H         1 <0>         0.1482
     32 H7         -2.7486    3.4253    4.8059 H         1 <0>         0.1986
     33 H8         -2.7956    9.1997    4.7873 H         1 <0>         0.2479
     34 H9         -4.9693    9.7448    8.6304 H         1 <0>         0.1684
     35 H10        -5.9178   12.2094    8.2133 H         1 <0>         0.1271
     36 H11        -4.6658   12.0709    9.4650 H         1 <0>         0.1304
     37 H12        -2.8412   13.1912    6.0137 H         1 <0>         0.2604
     38 H13        -3.2665   11.0330    5.1019 H         1 <0>         0.2515
     39 H14         0.5409    7.5991    0.7174 H         1 <0>         0.0646
     40 H15        -1.0090    7.5834   -0.1576 H         1 <0>         0.0642
     41 H16        -0.6764    8.8568    1.0408 H         1 <0>         0.1028
@<TRIPOS>BOND
     1    1    2 1
     2    1   26 1
     3    1   27 1
     4    1   28 1
     5    2    3 1
     6    3    8 ar
     7    3    4 ar
     8    4    5 ar
     9    4   29 1
    10    5    6 ar
    11    5   30 1
    12    6    7 ar
    13    6   24 1
    14    7    8 ar
    15    7    9 1
    16    8   31 1
    17    9   13 1
    18    9   10 2
    19   10   11 1
    20   10   32 1
    21   11   12 1
    22   12   13 2
    23   12   14 1
    24   14   15 am
    25   14   33 1
    26   15   16 2
    27   15   17 1
    28   17   23 1
    29   17   18 2
    30   18   19 1
    31   18   34 1
    32   19   20 1
    33   19   35 1
    34   19   36 1
    35   20   21 2
    36   20   22 am
    37   22   23 1
    38   22   37 1
    39   23   38 1
    40   24   25 1
    41   25   39 1
    42   25   40 1
    43   25   41 1
@<TRIPOS>MOLECULE
ZINC02646581
   40    43     0     0     0
SMALL
USER_CHARGES

@<TRIPOS>ATOM
      1 C1         -7.4852   -5.0421   -5.3263 C.3       1 <0>        -0.1867
      2 C2         -7.3460   -5.1214   -3.8278 C.2       1 <0>         0.1048
      3 C3         -8.2094   -5.8687   -3.0949 C.2       1 <0>        -0.2648
      4 C4         -8.0567   -5.9240   -1.7027 C.2       1 <0>         0.0228
      5 N1         -7.0891   -5.2600   -1.1145 N.2       1 <0>        -0.1401
      6 C5         -6.2309   -4.5190   -1.8283 C.2       1 <0>         0.1014
      7 N2         -6.3523   -4.4437   -3.1895 N.pl3     1 <0>        -0.1037
      8 N3         -5.3223   -3.6055   -3.6360 N.2       1 <0>        -0.0766
      9 C6         -4.6474   -3.2236   -2.5680 C.2       1 <0>        -0.0397
     10 N4         -5.1894   -3.7770   -1.4811 N.2       1 <0>        -0.2216
     11 C7         -3.4688   -2.3264   -2.5751 C.2       1 <0>         0.3887
     12 O1         -3.0515   -1.8798   -3.6255 O.2       1 <0>        -0.3370
     13 N5         -2.8592   -2.0054   -1.4168 N.am      1 <0>        -0.3725
     14 C8         -1.6935   -1.1181   -1.4239 C.3       1 <0>        -0.0032
     15 C9         -1.1970   -0.9169    0.0093 C.3       1 <0>        -0.1025
     16 C10         0.0021   -0.0041    0.0020 C.2       1 <0>        -0.1657
     17 C11         1.2909   -0.3790   -0.0123 C.2       1 <0>        -0.0638
     18 N6          2.0983    0.7258   -0.0141 N.pl3     1 <0>        -0.1993
     19 H1          3.0681    0.7073   -0.0231 H         1 <0>         0.2413
     20 C12         1.3290    1.8677   -0.0006 C.ar      1 <0>         0.0070
     21 C13        -0.0178    1.4607    0.0101 C.ar      1 <0>        -0.0853
     22 C14        -1.0343    2.4172    0.0300 C.ar      1 <0>        -0.0783
     23 C15        -0.7155    3.7461    0.0298 C.ar      1 <0>        -0.1546
     24 C16         0.6114    4.1527    0.0193 C.ar      1 <0>        -0.1069
     25 C17         1.6305    3.2255    0.0042 C.ar      1 <0>        -0.1429
     26 H2         -6.8992   -5.8367   -5.7882 H         1 <0>         0.1108
     27 H3         -8.5338   -5.1576   -5.6004 H         1 <0>         0.0988
     28 H4         -7.1232   -4.0746   -5.6741 H         1 <0>         0.1214
     29 H5         -9.0052   -6.4152   -3.5790 H         1 <0>         0.1639
     30 H6         -8.7386   -6.5163   -1.1107 H         1 <0>         0.1797
     31 H7         -3.1922   -2.3619   -0.5784 H         1 <0>         0.2421
     32 H8         -1.9729   -0.1546   -1.8502 H         1 <0>         0.1025
     33 H9         -0.9006   -1.5646   -2.0238 H         1 <0>         0.0961
     34 H10        -0.9176   -1.8803    0.4356 H         1 <0>         0.0872
     35 H11        -1.9899   -0.4703    0.6092 H         1 <0>         0.0959
     36 H12         1.6391   -1.4013   -0.0211 H         1 <0>         0.1663
     37 H13        -2.0691    2.1081    0.0430 H         1 <0>         0.1305
     38 H14        -1.5024    4.4857    0.0412 H         1 <0>         0.1292
     39 H15         0.8476    5.2066    0.0226 H         1 <0>         0.1297
     40 H16         2.6600    3.5519   -0.0043 H         1 <0>         0.1252
@<TRIPOS>BOND
     1    1    2 1
     2    1   26 1
     3    1   27 1
     4    1   28 1
     5    2    7 1
     6    2    3 2
     7    3    4 1
     8    3   29 1
     9    4    5 2
    10    4   30 1
    11    5    6 1
    12    6   10 2
    13    6    7 1
    14    7    8 1
    15    8    9 2
    16    9   10 1
    17    9   11 1
    18   11   12 2
    19   11   13 am
    20   13   14 1
    21   13   31 1
    22   14   15 1
    23   14   32 1
    24   14   33 1
    25   15   16 1
    26   15   34 1
    27   15   35 1
    28   16   21 1
    29   16   17 2
    30   17   18 1
    31   17   36 1
    32   18   19 1
    33   18   20 1
    34   20   25 ar
    35   20   21 ar
    36   21   22 ar
    37   22   23 ar
    38   22   37 1
    39   23   24 ar
    40   23   38 1
    41   24   25 ar
    42   24   39 1
    43   25   40 1
@<TRIPOS>MOLECULE
ZINC02652000
   41    43     0     0     0
SMALL
USER_CHARGES

@<TRIPOS>ATOM
      1 C1         -0.3954   -2.7074    1.2406 C.3       1 <0>        -0.2322
      2 C2         -1.1354   -2.2006    0.0011 C.3       1 <0>         0.0155
      3 H1         -0.6252   -2.5521   -0.8957 H         1 <0>         0.1457
      4 C3         -1.1558   -0.6938    0.0094 C.2       1 <0>         0.2834
      5 O1         -2.2142   -0.1017    0.0227 O.2       1 <0>        -0.3226
      6 N1          0.0021   -0.0041    0.0020 N.am      1 <0>        -0.2592
      7 C4         -0.0167    1.3824    0.0096 C.2       1 <0>        -0.0850
      8 C5          1.0606    2.2605    0.0041 C.2       1 <0>        -0.2764
      9 C6          0.7494    3.6700    0.0146 C.2       1 <0>        -0.1279
     10 C7         -0.5517    4.0116    0.0289 C.2       1 <0>        -0.3806
     11 S1         -1.3881    2.4395    0.0208 S.3       1 <0>         0.5109
     12 C8          2.4453    1.7788   -0.0122 C.2       1 <0>         0.3855
     13 O2          2.6737    0.5833   -0.0212 O.2       1 <0>        -0.4172
     14 N2          3.4653    2.6598   -0.0172 N.am      1 <0>        -0.4224
     15 N3         -2.5098   -2.7077    0.0115 N.am      1 <0>        -0.3199
     16 C9         -3.3867   -2.4416    1.0053 C.2       1 <0>         0.3332
     17 O3         -3.2422   -1.6466    1.9091 O.2       1 <0>        -0.2835
     18 C10        -4.5771   -3.3241    0.7654 C.3       1 <0>        -0.1444
     19 H2         -4.3513   -4.2792    1.2397 H         1 <0>         0.1150
     20 C11        -5.8879   -2.8558    1.3059 C.3       1 <0>        -0.1110
     21 C12        -6.6210   -1.9302    0.3872 C.2       1 <0>        -0.1592
     22 C13        -6.2757   -1.7299   -0.8410 C.2       1 <0>        -0.1606
     23 C14        -5.0894   -2.3408   -1.5029 C.3       1 <0>        -0.1235
     24 C15        -4.5350   -3.5553   -0.7539 C.3       1 <0>        -0.1277
     25 H3         -4.9801   -4.4972   -1.0745 H         1 <0>         0.1393
     26 C16        -3.0133   -3.4863   -0.9655 C.2       1 <0>         0.3127
     27 O4         -2.3843   -4.0314   -1.8469 O.2       1 <0>        -0.3090
     28 H4         -0.3806   -3.7973    1.2346 H         1 <0>         0.0948
     29 H5          0.6272   -2.3302    1.2329 H         1 <0>         0.0953
     30 H6         -0.9056   -2.3559    2.1374 H         1 <0>         0.1093
     31 H7          0.8486   -0.4776   -0.0086 H         1 <0>         0.2762
     32 H8          1.5279    4.4185    0.0116 H         1 <0>         0.1369
     33 H9         -0.9846    5.0009    0.0387 H         1 <0>         0.1874
     34 H10         3.2833    3.6125   -0.0100 H         1 <0>         0.2184
     35 H11         4.3814    2.3411   -0.0280 H         1 <0>         0.2291
     36 H12        -5.7117   -2.3415    2.2507 H         1 <0>         0.1145
     37 H13        -6.5160   -3.7256    1.4980 H         1 <0>         0.0949
     38 H14        -7.4820   -1.4027    0.7704 H         1 <0>         0.1280
     39 H15        -6.8935   -1.0705   -1.4326 H         1 <0>         0.1252
     40 H16        -4.3046   -1.5881   -1.5777 H         1 <0>         0.1114
     41 H17        -5.3732   -2.6501   -2.5088 H         1 <0>         0.0997
@<TRIPOS>BOND
     1    1    2 1
     2    1   28 1
     3    1   29 1
     4    1   30 1
     5    2    3 1
     6    2    4 1
     7    2   15 1
     8    4    5 2
     9    4    6 am
    10    6    7 1
    11    6   31 1
    12    7   11 1
    13    7    8 2
    14    8    9 1
    15    8   12 1
    16    9   10 2
    17    9   32 1
    18   10   11 1
    19   10   33 1
    20   12   13 2
    21   12   14 am
    22   14   34 1
    23   14   35 1
    24   15   26 am
    25   15   16 am
    26   16   17 2
    27   16   18 1
    28   18   19 1
    29   18   24 1
    30   18   20 1
    31   20   21 1
    32   20   36 1
    33   20   37 1
    34   21   22 2
    35   21   38 1
    36   22   23 1
    37   22   39 1
    38   23   24 1
    39   23   40 1
    40   23   41 1
    41   24   25 1
    42   24   26 1
    43   26   27 2
@<TRIPOS>MOLECULE
ZINC02653437
   39    40     0     0     0
SMALL
USER_CHARGES

@<TRIPOS>ATOM
      1 C1         -0.1585    0.0030   -0.6278 C.3       1 <0>        -0.2388
      2 C2         -0.1856    1.5097   -0.6273 C.2       1 <0>         0.3007
      3 O1          0.7027    2.1323   -1.1696 O.2       1 <0>        -0.3459
      4 N1         -1.1999    2.1653   -0.0291 N.am      1 <0>        -0.3252
      5 C3         -1.1671    3.5552    0.0738 C.ar      1 <0>         0.0993
      6 C4          0.0543    4.2219    0.0829 C.ar      1 <0>        -0.1575
      7 C5          0.0903    5.5945    0.1795 C.ar      1 <0>        -0.0520
      8 C6         -1.1018    6.3180    0.2793 C.ar      1 <0>        -0.1421
      9 C7         -2.3270    5.6444    0.2752 C.ar      1 <0>        -0.0420
     10 C8         -2.3556    4.2721    0.1729 C.ar      1 <0>        -0.1899
     11 C9         -1.0671    7.7882    0.3881 C.2       1 <0>         0.3564
     12 O2         -2.1041    8.4157    0.4744 O.2       1 <0>        -0.3708
     13 O3          0.1145    8.4358    0.3920 O.3       1 <0>        -0.2350
     14 C10         0.0727    9.8830    0.5020 C.3       1 <0>        -0.0241
     15 C11         1.4775   10.4285    0.4898 C.2       1 <0>         0.2993
     16 O4          2.4211    9.6720    0.3974 O.2       1 <0>        -0.3268
     17 N2          1.6854   11.7570    0.5814 N.am      1 <0>        -0.3194
     18 C12         2.9804   12.2738    0.4511 C.ar      1 <0>         0.0325
     19 C13         3.9440   11.5663   -0.2545 C.ar      1 <0>        -0.1146
     20 C14         5.2191   12.0811   -0.3864 C.ar      1 <0>        -0.1221
     21 C15         5.5405   13.2949    0.1930 C.ar      1 <0>        -0.1233
     22 C16         4.5859   14.0008    0.9016 C.ar      1 <0>        -0.1469
     23 C17         3.3057   13.4941    1.0329 C.ar      1 <0>         0.0575
     24 F1          2.3729   14.1834    1.7256 F         1 <0>        -0.1117
     25 H1          0.3787   -0.3511    0.2520 H         1 <0>         0.1095
     26 H2         -1.1793   -0.3788   -0.6083 H         1 <0>         0.0844
     27 H3          0.3446   -0.3511   -1.5276 H         1 <0>         0.1205
     28 H4         -1.9527    1.6700    0.3299 H         1 <0>         0.2350
     29 H5          0.9749    3.6619    0.0103 H         1 <0>         0.1762
     30 H6          1.0384    6.1116    0.1824 H         1 <0>         0.1607
     31 H7         -3.2498    6.2003    0.3517 H         1 <0>         0.1554
     32 H8         -3.3016    3.7511    0.1693 H         1 <0>         0.1353
     33 H9         -0.4845   10.2954   -0.3391 H         1 <0>         0.1120
     34 H10        -0.4174   10.1625    1.4346 H         1 <0>         0.1114
     35 H11         0.9379   12.3552    0.7377 H         1 <0>         0.2407
     36 H12         3.6958   10.6160   -0.7038 H         1 <0>         0.1788
     37 H13         5.9675   11.5325   -0.9388 H         1 <0>         0.1395
     38 H14         6.5397   13.6923    0.0920 H         1 <0>         0.1364
     39 H15         4.8402   14.9483    1.3532 H         1 <0>         0.1463
@<TRIPOS>BOND
     1    1    2 1
     2    1   25 1
     3    1   26 1
     4    1   27 1
     5    2    3 2
     6    2    4 am
     7    4    5 1
     8    4   28 1
     9    5   10 ar
    10    5    6 ar
    11    6    7 ar
    12    6   29 1
    13    7    8 ar
    14    7   30 1
    15    8    9 ar
    16    8   11 1
    17    9   10 ar
    18    9   31 1
    19   10   32 1
    20   11   12 2
    21   11   13 1
    22   13   14 1
    23   14   15 1
    24   14   33 1
    25   14   34 1
    26   15   16 2
    27   15   17 am
    28   17   18 1
    29   17   35 1
    30   18   23 ar
    31   18   19 ar
    32   19   20 ar
    33   19   36 1
    34   20   21 ar
    35   20   37 1
    36   21   22 ar
    37   21   38 1
    38   22   23 ar
    39   22   39 1
    40   23   24 1
@<TRIPOS>MOLECULE
ZINC02656491
   35    38     0     0     0
SMALL
USER_CHARGES

@<TRIPOS>ATOM
      1 C1          3.4058    4.5963   -0.0046 C.3       1 <0>        -0.1341
      2 C2          2.6785    3.2764   -0.0054 C.2       1 <0>        -0.0884
      3 C3          1.3387    3.0918    0.0059 C.2       1 <0>        -0.2360
      4 C4          1.1874    1.6797   -0.0003 C.2       1 <0>         0.0021
      5 N1          2.3966    1.1831   -0.0087 N.2       1 <0>        -0.0751
      6 O1          3.2335    2.0558   -0.0170 O.3       1 <0>         0.0482
      7 N2         -0.0111    0.9658    0.0074 N.am      1 <0>        -0.2820
      8 C5         -1.1873    1.6238    0.0165 C.2       1 <0>         0.3283
      9 O2         -1.2037    2.8364    0.0232 O.2       1 <0>        -0.3408
     10 C6         -2.4820    0.8526    0.0185 C.3       1 <0>        -0.3061
     11 S1         -3.8767    2.0125    0.0314 S.3       1 <0>         0.3179
     12 C7         -5.2976    0.9707    0.0325 C.2       1 <0>        -0.1845
     13 N3         -5.2919   -0.3401    0.0196 N.2       1 <0>        -0.0941
     14 N4         -6.6219   -0.7796    0.0292 N.2       1 <0>        -0.1259
     15 C8         -7.3997    0.2792    0.0387 C.2       1 <0>         0.0851
     16 N5         -6.6013    1.3880    0.0409 N.pl3     1 <0>        -0.1330
     17 C9         -7.4219    2.5184    0.0509 C.ar      1 <0>        -0.0130
     18 C10        -7.1470    3.8783    0.0570 C.ar      1 <0>        -0.0882
     19 C11        -8.1836    4.7904    0.0673 C.ar      1 <0>        -0.1376
     20 C12        -9.4974    4.3538    0.0707 C.ar      1 <0>        -0.0983
     21 C13        -9.7813    3.0029    0.0647 C.ar      1 <0>        -0.1419
     22 C14        -8.7455    2.0779    0.0548 C.ar      1 <0>         0.0467
     23 N6         -8.7226    0.6868    0.0472 N.pl3     1 <0>        -0.2342
     24 H1         -9.4982    0.1043    0.0477 H         1 <0>         0.2751
     25 H2          3.5906    4.9087    1.0232 H         1 <0>         0.0993
     26 H3          4.3558    4.4880   -0.5278 H         1 <0>         0.0959
     27 H4          2.7969    5.3469   -0.5086 H         1 <0>         0.1025
     28 H5          0.5637    3.8439    0.0170 H         1 <0>         0.2080
     29 H6          0.0021   -0.0041    0.0020 H         1 <0>         0.2484
     30 H7         -2.5355    0.2301   -0.8747 H         1 <0>         0.1405
     31 H8         -2.5271    0.2204    0.9052 H         1 <0>         0.1404
     32 H9         -6.1235    4.2230    0.0544 H         1 <0>         0.1499
     33 H10        -7.9687    5.8488    0.0724 H         1 <0>         0.1433
     34 H11       -10.3032    5.0728    0.0784 H         1 <0>         0.1415
     35 H12       -10.8074    2.6659    0.0681 H         1 <0>         0.1403
@<TRIPOS>BOND
     1    1    2 1
     2    1   25 1
     3    1   26 1
     4    1   27 1
     5    2    6 1
     6    2    3 2
     7    3    4 1
     8    3   28 1
     9    4    5 2
    10    4    7 1
    11    5    6 1
    12    7    8 am
    13    7   29 1
    14    8    9 2
    15    8   10 1
    16   10   11 1
    17   10   30 1
    18   10   31 1
    19   11   12 1
    20   12   16 1
    21   12   13 2
    22   13   14 1
    23   14   15 2
    24   15   23 1
    25   15   16 1
    26   16   17 1
    27   17   22 ar
    28   17   18 ar
    29   18   19 ar
    30   18   32 1
    31   19   20 ar
    32   19   33 1
    33   20   21 ar
    34   20   34 1
    35   21   22 ar
    36   21   35 1
    37   22   23 1
    38   23   24 1
@<TRIPOS>MOLECULE
ZINC02659983
   43    46     0     0     0
SMALL
USER_CHARGES

@<TRIPOS>ATOM
      1 C1          7.2615   -6.0489    1.9745 C.3       1 <0>        -0.2133
      2 C2          5.9571   -5.6421    2.6631 C.3       1 <0>        -0.1379
      3 C3          5.5931   -6.6843    3.7224 C.3       1 <0>        -0.2065
      4 C4          6.1371   -4.2774    3.3310 C.3       1 <0>        -0.0055
      5 N1          6.3677   -3.2580    2.3044 N.am      1 <0>        -0.2655
      6 C5          7.6234   -2.8973    1.8265 C.ar      1 <0>         0.0802
      7 C6          8.8977   -3.3505    2.1480 C.ar      1 <0>        -0.1633
      8 C7         10.0024   -2.8276    1.5054 C.ar      1 <0>        -0.0803
      9 C8          9.8585   -1.8409    0.5444 C.ar      1 <0>        -0.1647
     10 C9          8.6019   -1.3748    0.2142 C.ar      1 <0>        -0.0427
     11 C10         7.4816   -1.9007    0.8509 C.ar      1 <0>        -0.1138
     12 C11         6.0318   -1.6310    0.7350 C.2       1 <0>        -0.0212
     13 N2          5.4398   -0.7686   -0.0574 N.2       1 <0>        -0.0598
     14 C12         4.0878   -0.6500   -0.0423 C.ar      1 <0>        -0.0468
     15 C13         3.2812   -1.7987   -0.0403 C.ar      1 <0>        -0.0783
     16 C14         1.9209   -1.6834   -0.0260 C.ar      1 <0>        -0.1266
     17 C15         1.3249   -0.4268   -0.0129 C.ar      1 <0>         0.0157
     18 C16         2.1174    0.7275   -0.0143 C.ar      1 <0>        -0.0129
     19 C17         3.4944    0.6193   -0.0291 C.ar      1 <0>        -0.0847
     20 N3          1.2447    1.8137   -0.0001 N.am      1 <0>        -0.2954
     21 H1          1.5015    2.7491    0.0028 H         1 <0>         0.2686
     22 C18        -0.0162    1.3418    0.0094 C.2       1 <0>         0.3893
     23 O1         -1.0207    2.0283    0.0181 O.2       1 <0>        -0.3842
     24 N4          0.0021   -0.0041    0.0020 N.am      1 <0>        -0.2924
     25 H2         -0.7774   -0.5814    0.0061 H         1 <0>         0.2683
     26 C19         5.3929   -2.5529    1.7054 C.2       1 <0>         0.3094
     27 O2          4.2005   -2.6531    1.9202 O.2       1 <0>        -0.3196
     28 H3          7.5208   -5.3064    1.2198 H         1 <0>         0.0840
     29 H4          8.0596   -6.1090    2.7145 H         1 <0>         0.0705
     30 H5          7.1333   -7.0212    1.4987 H         1 <0>         0.0794
     31 H6          5.1590   -5.5821    1.9231 H         1 <0>         0.1047
     32 H7          4.6639   -6.3945    4.2130 H         1 <0>         0.0783
     33 H8          5.4649   -7.6566    3.2466 H         1 <0>         0.0822
     34 H9          6.3912   -6.7444    4.4624 H         1 <0>         0.0732
     35 H10         6.9921   -4.3132    4.0061 H         1 <0>         0.0966
     36 H11         5.2387   -4.0279    3.8955 H         1 <0>         0.1150
     37 H12         9.0232   -4.1206    2.8947 H         1 <0>         0.1378
     38 H13        10.9886   -3.1873    1.7591 H         1 <0>         0.1365
     39 H14        10.7305   -1.4358    0.0525 H         1 <0>         0.1386
     40 H15         8.4885   -0.6051   -0.5349 H         1 <0>         0.1487
     41 H16         3.7382   -2.7772   -0.0504 H         1 <0>         0.1512
     42 H17         1.3056   -2.5709   -0.0245 H         1 <0>         0.1390
     43 H18         4.1095    1.5070   -0.0302 H         1 <0>         0.1478
@<TRIPOS>BOND
     1    1    2 1
     2    1   28 1
     3    1   29 1
     4    1   30 1
     5    2    3 1
     6    2    4 1
     7    2   31 1
     8    3   32 1
     9    3   33 1
    10    3   34 1
    11    4    5 1
    12    4   35 1
    13    4   36 1
    14    5   26 am
    15    5    6 1
    16    6   11 ar
    17    6    7 ar
    18    7    8 ar
    19    7   37 1
    20    8    9 ar
    21    8   38 1
    22    9   10 ar
    23    9   39 1
    24   10   11 ar
    25   10   40 1
    26   11   12 1
    27   12   13 2
    28   12   26 1
    29   13   14 1
    30   14   19 ar
    31   14   15 ar
    32   15   16 ar
    33   15   41 1
    34   16   17 ar
    35   16   42 1
    36   17   24 1
    37   17   18 ar
    38   18   19 ar
    39   18   20 1
    40   19   43 1
    41   20   21 1
    42   20   22 am
    43   22   23 2
    44   22   24 am
    45   24   25 1
    46   26   27 2
@<TRIPOS>MOLECULE
ZINC02662213
   41    43     0     0     0
SMALL
USER_CHARGES

@<TRIPOS>ATOM
      1 C1         -8.2855   -2.1302    0.6027 C.3       1 <0>        -0.1681
      2 C2         -7.1761   -1.1175    0.4807 C.ar      1 <0>        -0.2060
      3 C3         -7.4598    0.2368    0.3966 C.ar      1 <0>         0.0593
      4 N1         -6.4630    1.0994    0.2898 N.ar      1 <0>        -0.1943
      5 C4         -5.2053    0.6815    0.2630 C.ar      1 <0>        -0.0834
      6 N2         -4.9006   -0.6065    0.3363 N.ar      1 <0>        -0.2473
      7 C5         -5.8501   -1.5203    0.4496 C.ar      1 <0>         0.0562
      8 C6         -5.4948   -2.9821    0.5377 C.3       1 <0>        -0.1706
      9 S1         -3.9083    1.8654    0.1191 S.3       1 <0>         0.3553
     10 C7         -2.4731    0.7627    0.1334 C.3       1 <0>        -0.3224
     11 C8         -1.2114    1.5787    0.0176 C.2       1 <0>         0.3163
     12 O1         -1.2762    2.7869   -0.0663 O.2       1 <0>        -0.3418
     13 N3         -0.0111    0.9658    0.0074 N.am      1 <0>        -0.3208
     14 C9          1.1643    1.7278   -0.0085 C.ar      1 <0>         0.0628
     15 C10         2.2883    1.2838    0.6788 C.ar      1 <0>        -0.1535
     16 C11         3.4508    2.0278    0.6633 C.ar      1 <0>        -0.1090
     17 C12         3.4957    3.2271   -0.0317 C.ar      1 <0>        -0.0139
     18 C13         2.3669    3.6784   -0.7186 C.ar      1 <0>         0.0187
     19 C14         1.2026    2.9264   -0.7051 C.ar      1 <0>        -0.1241
     20 N4          2.7132    4.8912   -1.3097 N.am      1 <0>        -0.2925
     21 H1          2.1308    5.4440   -1.8539 H         1 <0>         0.2714
     22 C15         3.9936    5.1658   -0.9973 C.2       1 <0>         0.3902
     23 O2          4.6061    6.1539   -1.3570 O.2       1 <0>        -0.3832
     24 N5          4.4939    4.1813   -0.2273 N.am      1 <0>        -0.2970
     25 H2          5.3947    4.1422    0.1303 H         1 <0>         0.2673
     26 C16        -8.8868    0.7202    0.4259 C.3       1 <0>        -0.1707
     27 H3         -8.5988   -2.4475   -0.3919 H         1 <0>         0.0891
     28 H4         -7.9290   -2.9938    1.1641 H         1 <0>         0.0846
     29 H5         -9.1311   -1.6817    1.1242 H         1 <0>         0.0869
     30 H6         -5.4553   -3.4075   -0.4651 H         1 <0>         0.0985
     31 H7         -4.5222   -3.0914    1.0173 H         1 <0>         0.0984
     32 H8         -6.2501   -3.5049    1.1245 H         1 <0>         0.0926
     33 H9         -2.5374    0.0717   -0.7072 H         1 <0>         0.1344
     34 H10        -2.4571    0.1993    1.0664 H         1 <0>         0.1363
     35 H11         0.0389   -0.0029    0.0069 H         1 <0>         0.2366
     36 H12         2.2529    0.3518    1.2233 H         1 <0>         0.1366
     37 H13         4.3236    1.6779    1.1945 H         1 <0>         0.1379
     38 H14         0.3277    3.2731   -1.2351 H         1 <0>         0.1726
     39 H15        -9.2768    0.7632   -0.5910 H         1 <0>         0.1002
     40 H16        -9.4911    0.0331    1.0181 H         1 <0>         0.0901
     41 H17        -8.9246    1.7141    0.8719 H         1 <0>         0.1063
@<TRIPOS>BOND
     1    1    2 1
     2    1   27 1
     3    1   28 1
     4    1   29 1
     5    2    7 ar
     6    2    3 ar
     7    3    4 ar
     8    3   26 1
     9    4    5 ar
    10    5    6 ar
    11    5    9 1
    12    6    7 ar
    13    7    8 1
    14    8   30 1
    15    8   31 1
    16    8   32 1
    17    9   10 1
    18   10   11 1
    19   10   33 1
    20   10   34 1
    21   11   12 2
    22   11   13 am
    23   13   14 1
    24   13   35 1
    25   14   19 ar
    26   14   15 ar
    27   15   16 ar
    28   15   36 1
    29   16   17 ar
    30   16   37 1
    31   17   24 1
    32   17   18 ar
    33   18   19 ar
    34   18   20 1
    35   19   38 1
    36   20   21 1
    37   20   22 am
    38   22   23 2
    39   22   24 am
    40   24   25 1
    41   26   39 1
    42   26   40 1
    43   26   41 1
@<TRIPOS>MOLECULE
ZINC02663849
   45    46     0     0     0
SMALL
USER_CHARGES

@<TRIPOS>ATOM
      1 C1         -2.6974    5.9163   -0.2451 C.3       1 <0>        -0.2537
      2 C2         -2.6563    4.4119   -0.1660 C.2       1 <0>         0.2657
      3 O1         -3.6888    3.7801   -0.0951 O.2       1 <0>        -0.2847
      4 C3         -1.3630    3.7096   -0.1749 C.ar      1 <0>        -0.1798
      5 C4         -0.1698    4.4349   -0.2566 C.ar      1 <0>        -0.0401
      6 C5          1.0377    3.7696   -0.2647 C.ar      1 <0>        -0.1648
      7 C6          1.0712    2.3876   -0.1929 C.ar      1 <0>        -0.0013
      8 C7         -0.1050    1.6630   -0.1123 C.ar      1 <0>        -0.7734
      9 C8         -1.3210    2.3135   -0.1079 C.ar      1 <0>         0.0328
     10 S1         -0.0491   -0.0958   -0.0225 S.o2      1 <0>         2.7621
     11 O2         -1.3000   -0.5671   -0.5044 O.2       1 <0>        -0.9081
     12 O3          1.1878   -0.4928   -0.5987 O.2       1 <0>        -0.9091
     13 N1          0.0238   -0.5021    1.5812 N.pl3     1 <0>        -0.8044
     14 C9         -1.0227   -0.1490    2.4409 C.ar      1 <0>         0.0388
     15 C10        -2.3326   -0.1626    1.9842 C.ar      1 <0>        -0.1720
     16 C11        -3.3644    0.1866    2.8351 C.ar      1 <0>        -0.0368
     17 C12        -3.0946    0.5499    4.1415 C.ar      1 <0>        -0.1341
     18 C13        -1.7914    0.5658    4.6037 C.ar      1 <0>        -0.1313
     19 C14        -0.7523    0.2117    3.7591 C.ar      1 <0>         0.0358
     20 O4          0.5295    0.2215    4.2139 O.3       1 <0>        -0.2891
     21 C15        -4.7868    0.1709    2.3378 C.3       1 <0>        -0.0332
     22 C16        -5.1498   -1.2417    1.8752 C.3       1 <0>        -0.1996
     23 C17        -5.7270    0.5947    3.4680 C.3       1 <0>        -0.2039
     24 C18        -4.9280    1.1435    1.1652 C.3       1 <0>        -0.1987
     25 H1         -1.7646    6.2729   -0.2977 H         1 <0>         0.0792
     26 H2         -3.2525    6.2185   -1.1331 H         1 <0>         0.1121
     27 H3         -3.1887    6.3135    0.6432 H         1 <0>         0.1103
     28 H4         -0.1944    5.5131   -0.3134 H         1 <0>         0.1403
     29 H5          1.9599    4.3282   -0.3278 H         1 <0>         0.1415
     30 H6          2.0202    1.8722   -0.2001 H         1 <0>         0.1531
     31 H7         -2.2382    1.7464   -0.0491 H         1 <0>         0.1737
     32 H8          0.7918   -0.9849    1.9248 H         1 <0>         0.2631
     33 H9         -2.5462   -0.4464    0.9643 H         1 <0>         0.1878
     34 H10        -3.9038    0.8224    4.8028 H         1 <0>         0.1428
     35 H11        -1.5841    0.8501    5.6247 H         1 <0>         0.1415
     36 H12         0.9816    1.0684    4.0978 H         1 <0>         0.2228
     37 H13        -5.0492   -1.9346    2.7106 H         1 <0>         0.0760
     38 H14        -6.1786   -1.2531    1.5155 H         1 <0>         0.0762
     39 H15        -4.4800   -1.5436    1.0700 H         1 <0>         0.0861
     40 H16        -5.4685    1.6010    3.7975 H         1 <0>         0.0753
     41 H17        -6.7559    0.5833    3.1083 H         1 <0>         0.0787
     42 H18        -5.6265   -0.0982    4.3033 H         1 <0>         0.0751
     43 H19        -4.2582    0.8416    0.3600 H         1 <0>         0.0823
     44 H20        -5.9568    1.1321    0.8055 H         1 <0>         0.0781
     45 H21        -4.6694    2.1498    1.4947 H         1 <0>         0.0870
@<TRIPOS>BOND
     1    1    2 1
     2    1   25 1
     3    1   26 1
     4    1   27 1
     5    2    3 2
     6    2    4 1
     7    4    9 ar
     8    4    5 ar
     9    5    6 ar
    10    5   28 1
    11    6    7 ar
    12    6   29 1
    13    7    8 ar
    14    7   30 1
    15    8    9 ar
    16    8   10 1
    17    9   31 1
    18   10   11 2
    19   10   12 2
    20   10   13 1
    21   13   14 1
    22   13   32 1
    23   14   19 ar
    24   14   15 ar
    25   15   16 ar
    26   15   33 1
    27   16   17 ar
    28   16   21 1
    29   17   18 ar
    30   17   34 1
    31   18   19 ar
    32   18   35 1
    33   19   20 1
    34   20   36 1
    35   21   22 1
    36   21   23 1
    37   21   24 1
    38   22   37 1
    39   22   38 1
    40   22   39 1
    41   23   40 1
    42   23   41 1
    43   23   42 1
    44   24   43 1
    45   24   44 1
    46   24   45 1
@<TRIPOS>MOLECULE
ZINC02664125
   40    42     0     0     0
SMALL
USER_CHARGES

@<TRIPOS>ATOM
      1 C1          6.5703   -1.3041   -5.3823 C.3       1 <0>        -0.1339
      2 C2          6.3377    0.0416   -4.7449 C.2       1 <0>        -0.0899
      3 C3          5.2722    0.4082   -3.9970 C.2       1 <0>        -0.2340
      4 C4          5.5446    1.7586   -3.6516 C.2       1 <0>         0.0050
      5 N1          6.6976    2.0488   -4.1948 N.2       1 <0>        -0.0791
      6 O1          7.1494    1.1072   -4.8040 O.3       1 <0>         0.0472
      7 N2          4.7449    2.6039   -2.8820 N.am      1 <0>        -0.2863
      8 C5          3.5738    2.1572   -2.3867 C.2       1 <0>         0.2967
      9 O2          3.2151    1.0204   -2.6100 O.2       1 <0>        -0.3370
     10 C6          2.7100    3.0702   -1.5553 C.3       1 <0>        -0.0165
     11 N3          1.5013    2.3543   -1.1397 N.am      1 <0>        -0.3102
     12 C7          1.3988    1.6384   -0.0025 C.2       1 <0>         0.3164
     13 O3          2.2571    1.4706    0.8371 O.2       1 <0>        -0.2984
     14 C8         -0.0127    1.0858    0.0080 C.3       1 <0>        -0.0135
     15 H1          0.0021   -0.0041    0.0020 H         1 <0>         0.1401
     16 N4         -0.5963    1.6031   -1.2417 N.am      1 <0>        -0.3930
     17 C9          0.3627    2.3311   -1.8418 C.2       1 <0>         0.4090
     18 O4          0.2115    2.9041   -2.9029 O.2       1 <0>        -0.3712
     19 C10        -0.7852    1.6054    1.2222 C.3       1 <0>        -0.1255
     20 C11        -2.1589    0.9863    1.2461 C.ar      1 <0>        -0.0892
     21 C12        -3.2110    1.6137    0.6054 C.ar      1 <0>        -0.1288
     22 C13        -4.4700    1.0432    0.6229 C.ar      1 <0>        -0.1239
     23 C14        -4.6794   -0.1489    1.2907 C.ar      1 <0>        -0.1237
     24 C15        -3.6284   -0.7736    1.9358 C.ar      1 <0>        -0.1226
     25 C16        -2.3682   -0.2060    1.9135 C.ar      1 <0>        -0.1207
     26 H2          7.5207   -1.2940   -5.9159 H         1 <0>         0.0946
     27 H3          6.5956   -2.0725   -4.6097 H         1 <0>         0.1006
     28 H4          5.7629   -1.5190   -6.0822 H         1 <0>         0.1012
     29 H5          4.4123   -0.1870   -3.7272 H         1 <0>         0.2082
     30 H6          5.0318    3.5131   -2.7034 H         1 <0>         0.2436
     31 H7          2.4305    3.9429   -2.1455 H         1 <0>         0.1379
     32 H8          3.2640    3.3906   -0.6729 H         1 <0>         0.1307
     33 H9         -1.4965    1.4486   -1.5684 H         1 <0>         0.2811
     34 H10        -0.2507    1.3390    2.1341 H         1 <0>         0.1162
     35 H11        -0.8763    2.6897    1.1580 H         1 <0>         0.1030
     36 H12        -3.0484    2.5475    0.0878 H         1 <0>         0.1329
     37 H13        -5.2910    1.5310    0.1186 H         1 <0>         0.1334
     38 H14        -5.6640   -0.5924    1.3081 H         1 <0>         0.1327
     39 H15        -3.7920   -1.7050    2.4576 H         1 <0>         0.1335
     40 H16        -1.5472   -0.6939    2.4179 H         1 <0>         0.1337
@<TRIPOS>BOND
     1    1    2 1
     2    1   26 1
     3    1   27 1
     4    1   28 1
     5    2    6 1
     6    2    3 2
     7    3    4 1
     8    3   29 1
     9    4    5 2
    10    4    7 1
    11    5    6 1
    12    7    8 am
    13    7   30 1
    14    8    9 2
    15    8   10 1
    16   10   11 1
    17   10   31 1
    18   10   32 1
    19   11   17 am
    20   11   12 am
    21   12   13 2
    22   12   14 1
    23   14   15 1
    24   14   16 1
    25   14   19 1
    26   16   17 am
    27   16   33 1
    28   17   18 2
    29   19   20 1
    30   19   34 1
    31   19   35 1
    32   20   25 ar
    33   20   21 ar
    34   21   22 ar
    35   21   36 1
    36   22   23 ar
    37   22   37 1
    38   23   24 ar
    39   23   38 1
    40   24   25 ar
    41   24   39 1
    42   25   40 1
@<TRIPOS>MOLECULE
ZINC02664126
   40    42     0     0     0
SMALL
USER_CHARGES

@<TRIPOS>ATOM
      1 C1         -3.5876    2.2694    9.5991 C.3       1 <0>        -0.1340
      2 C2         -2.1629    2.2344    9.1092 C.2       1 <0>        -0.0899
      3 C3         -1.7511    2.2319    7.8209 C.2       1 <0>        -0.2340
      4 C4         -0.3345    2.1904    7.9142 C.2       1 <0>         0.0050
      5 N1         -0.0530    2.1812    9.1907 N.2       1 <0>        -0.0791
      6 O1         -1.0561    2.2054    9.8654 O.3       1 <0>         0.0472
      7 N2          0.5742    2.1697    6.8560 N.am      1 <0>        -0.2863
      8 C5          0.1281    2.1835    5.5842 C.2       1 <0>         0.2966
      9 O2         -1.0634    2.2138    5.3599 O.2       1 <0>        -0.3370
     10 C6          1.1098    2.1611    4.4411 C.3       1 <0>        -0.0164
     11 N3          0.3805    2.1819    3.1707 N.am      1 <0>        -0.3103
     12 C7         -0.0246    1.0781    2.5121 C.2       1 <0>         0.3165
     13 O3          0.1393   -0.0756    2.8465 O.2       1 <0>        -0.2983
     14 C8         -0.7288    1.5792    1.2668 C.3       1 <0>        -0.0134
     15 H1         -1.7725    1.2650    1.2609 H         1 <0>         0.1399
     16 N4         -0.6294    3.0447    1.3789 N.am      1 <0>        -0.3929
     17 C9          0.0337    3.2991    2.5213 C.2       1 <0>         0.4089
     18 O4          0.2892    4.4188    2.9192 O.2       1 <0>        -0.3714
     19 C10        -0.0127    1.0858    0.0080 C.3       1 <0>        -0.1252
     20 C11        -0.7416    1.5850   -1.2129 C.ar      1 <0>        -0.0893
     21 C12        -1.7499    0.8246   -1.7750 C.ar      1 <0>        -0.1207
     22 C13        -2.4217    1.2848   -2.8921 C.ar      1 <0>        -0.1227
     23 C14        -2.0782    2.5005   -3.4532 C.ar      1 <0>        -0.1237
     24 C15        -1.0663    3.2585   -2.8942 C.ar      1 <0>        -0.1240
     25 C16        -0.3980    2.8008   -1.7740 C.ar      1 <0>        -0.1291
     26 H2         -3.5972    2.2674   10.6890 H         1 <0>         0.0946
     27 H3         -4.0756    3.1728    9.2331 H         1 <0>         0.1012
     28 H4         -4.1206    1.3934    9.2295 H         1 <0>         0.1006
     29 H5         -2.3586    2.2544    6.9282 H         1 <0>         0.2082
     30 H6          1.5271    2.1455    7.0354 H         1 <0>         0.2435
     31 H7          1.7138    1.2556    4.4985 H         1 <0>         0.1307
     32 H8          1.7584    3.0350    4.5020 H         1 <0>         0.1379
     33 H9         -0.9752    3.6987    0.7515 H         1 <0>         0.2814
     34 H10         0.0021   -0.0041    0.0020 H         1 <0>         0.1158
     35 H11         1.0099    1.4631    0.0003 H         1 <0>         0.1028
     36 H12        -2.0153   -0.1273   -1.3392 H         1 <0>         0.1336
     37 H13        -3.2120    0.6924   -3.3290 H         1 <0>         0.1335
     38 H14        -2.6001    2.8580   -4.3285 H         1 <0>         0.1327
     39 H15        -0.7977    4.2082   -3.3328 H         1 <0>         0.1335
     40 H16         0.3927    3.3928   -1.3375 H         1 <0>         0.1334
@<TRIPOS>BOND
     1    1    2 1
     2    1   26 1
     3    1   27 1
     4    1   28 1
     5    2    6 1
     6    2    3 2
     7    3    4 1
     8    3   29 1
     9    4    5 2
    10    4    7 1
    11    5    6 1
    12    7    8 am
    13    7   30 1
    14    8    9 2
    15    8   10 1
    16   10   11 1
    17   10   31 1
    18   10   32 1
    19   11   17 am
    20   11   12 am
    21   12   13 2
    22   12   14 1
    23   14   15 1
    24   14   16 1
    25   14   19 1
    26   16   17 am
    27   16   33 1
    28   17   18 2
    29   19   20 1
    30   19   34 1
    31   19   35 1
    32   20   25 ar
    33   20   21 ar
    34   21   22 ar
    35   21   36 1
    36   22   23 ar
    37   22   37 1
    38   23   24 ar
    39   23   38 1
    40   24   25 ar
    41   24   39 1
    42   25   40 1
@<TRIPOS>MOLECULE
ZINC02675026
   42    43     0     0     0
SMALL
USER_CHARGES

@<TRIPOS>ATOM
      1 C1         -0.0127    1.0858    0.0080 C.3       1 <0>        -0.2085
      2 C2         -0.7288    1.5792    1.2668 C.3       1 <0>        -0.0809
      3 C3          0.0111    1.0724    2.5063 C.3       1 <0>        -0.2192
      4 C4         -0.7496    3.1091    1.2752 C.3       1 <0>        -0.1978
      5 C5         -2.1642    1.0497    1.2777 C.3       1 <0>         0.0327
      6 H1         -2.6995    1.4183    0.4026 H         1 <0>         0.1307
      7 C6         -2.1513   -0.4610    1.2694 C.2       1 <0>         0.3088
      8 O1         -2.1106   -1.0664    0.2192 O.2       1 <0>        -0.3248
      9 N1         -2.1858   -1.1305    2.4387 N.am      1 <0>        -0.2157
     10 C7         -2.2525   -0.4535    3.6497 C.2       1 <0>        -0.1303
     11 N2         -2.5716    0.8045    3.6976 N.2       1 <0>        -0.0811
     12 N3         -2.8481    1.4917    2.5030 N.pl3     1 <0>        -0.3931
     13 S1         -1.8981   -1.3153    5.1452 S.3       1 <0>         0.2618
     14 C8         -2.1070   -0.0582    6.4362 C.3       1 <0>        -0.3043
     15 C9         -1.8295   -0.6718    7.7844 C.2       1 <0>         0.2822
     16 O2         -1.5212   -1.8416    7.8662 O.2       1 <0>        -0.2713
     17 C10        -1.9327    0.1488    9.0016 C.ar      1 <0>        -0.1578
     18 C11        -2.2824    1.4999    8.9109 C.ar      1 <0>        -0.0893
     19 C12        -2.3822    2.2608   10.0565 C.ar      1 <0>        -0.1405
     20 C13        -2.1265    1.6936   11.2928 C.ar      1 <0>        -0.0942
     21 C14        -1.7748    0.3586   11.3904 C.ar      1 <0>        -0.1417
     22 C15        -1.6759   -0.4169   10.2546 C.ar      1 <0>        -0.0621
     23 N4         -2.1550   -2.4961    2.4327 N.3       1 <0>        -0.2142
     24 H2          0.0021   -0.0041    0.0020 H         1 <0>         0.0975
     25 H3          1.0099    1.4631    0.0003 H         1 <0>         0.0785
     26 H4         -0.5399    1.4469   -0.8751 H         1 <0>         0.0767
     27 H5          1.0337    1.4497    2.4986 H         1 <0>         0.0798
     28 H6         -0.4990    1.4239    3.4031 H         1 <0>         0.0886
     29 H7          0.0259   -0.0175    2.5003 H         1 <0>         0.0866
     30 H8         -1.2768    3.4701    0.3922 H         1 <0>         0.0698
     31 H9         -1.2598    3.4606    2.1720 H         1 <0>         0.0804
     32 H10         0.2730    3.4864    1.2675 H         1 <0>         0.0809
     33 H11        -3.4712    2.2349    2.4870 H         1 <0>         0.2634
     34 H12        -1.4688    0.6946    6.2748 H         1 <0>         0.1281
     35 H13        -3.1289    0.3204    6.4127 H         1 <0>         0.1371
     36 H14        -2.4778    1.9450    7.9465 H         1 <0>         0.1355
     37 H15        -2.6558    3.3033    9.9885 H         1 <0>         0.1361
     38 H16        -2.2016    2.2960   12.1861 H         1 <0>         0.1344
     39 H17        -1.5768   -0.0769   12.3587 H         1 <0>         0.1384
     40 H18        -1.4006   -1.4584   10.3323 H         1 <0>         0.1544
     41 H19        -2.1865   -2.8626    3.3723 H         1 <0>         0.1749
     42 H20        -2.9052   -2.8722    1.8725 H         1 <0>         0.1693
@<TRIPOS>BOND
     1    1    2 1
     2    1   24 1
     3    1   25 1
     4    1   26 1
     5    2    3 1
     6    2    4 1
     7    2    5 1
     8    3   27 1
     9    3   28 1
    10    3   29 1
    11    4   30 1
    12    4   31 1
    13    4   32 1
    14    5    6 1
    15    5   12 1
    16    5    7 1
    17    7    8 2
    18    7    9 am
    19    9   10 1
    20    9   23 1
    21   10   11 2
    22   10   13 1
    23   11   12 1
    24   12   33 1
    25   13   14 1
    26   14   15 1
    27   14   34 1
    28   14   35 1
    29   15   16 2
    30   15   17 1
    31   17   22 ar
    32   17   18 ar
    33   18   19 ar
    34   18   36 1
    35   19   20 ar
    36   19   37 1
    37   20   21 ar
    38   20   38 1
    39   21   22 ar
    40   21   39 1
    41   22   40 1
    42   23   41 1
    43   23   42 1
@<TRIPOS>MOLECULE
ZINC02675027
   42    43     0     0     0
SMALL
USER_CHARGES

@<TRIPOS>ATOM
      1 C1         -6.0881    4.9212    2.5925 C.3       1 <0>        -0.1970
      2 C2         -6.2459    3.4434    2.2289 C.3       1 <0>        -0.0839
      3 C3         -7.4980    2.8825    2.9062 C.3       1 <0>        -0.2076
      4 C4         -5.0169    2.6668    2.7056 C.3       1 <0>        -0.2151
      5 C5         -6.3808    3.3032    0.7113 C.3       1 <0>         0.0331
      6 H1         -7.2624    3.8447    0.3683 H         1 <0>         0.1333
      7 C6         -6.5012    1.8432    0.3420 C.2       1 <0>         0.3093
      8 O1         -7.5878    1.3048    0.3235 O.2       1 <0>        -0.3223
      9 N1         -5.3910    1.1440    0.0281 N.am      1 <0>        -0.2127
     10 C7         -4.1409    1.7495    0.0312 C.2       1 <0>        -0.1279
     11 N2         -4.0226    3.0428    0.0377 N.2       1 <0>        -0.0831
     12 N3         -5.1797    3.8410    0.0535 N.pl3     1 <0>        -0.3895
     13 S1         -2.6922    0.7466    0.0189 S.3       1 <0>         0.2462
     14 C8         -1.3296    1.9440    0.0189 C.3       1 <0>        -0.2983
     15 C9         -0.0144    1.2083    0.0087 C.2       1 <0>         0.2822
     16 O2          0.0021   -0.0041    0.0020 O.2       1 <0>        -0.2721
     17 C10         1.2500    1.9614    0.0007 C.ar      1 <0>        -0.1579
     18 C11         1.2351    3.3599    0.0025 C.ar      1 <0>        -0.0893
     19 C12         2.4241    4.0583    0.0003 C.ar      1 <0>        -0.1403
     20 C13         3.6298    3.3790   -0.0148 C.ar      1 <0>        -0.0940
     21 C14         3.6528    1.9952   -0.0221 C.ar      1 <0>        -0.1416
     22 C15         2.4725    1.2824   -0.0147 C.ar      1 <0>        -0.0620
     23 N4         -5.4962   -0.1796   -0.2926 N.3       1 <0>        -0.2094
     24 H2         -6.9637    5.4745    2.2529 H         1 <0>         0.0716
     25 H3         -5.9920    5.0211    3.6736 H         1 <0>         0.0801
     26 H4         -5.1961    5.3208    2.1100 H         1 <0>         0.0825
     27 H5         -7.6104    1.8297    2.6471 H         1 <0>         0.0908
     28 H6         -7.4019    2.9824    3.9873 H         1 <0>         0.0784
     29 H7         -8.3736    3.4358    2.5666 H         1 <0>         0.0799
     30 H8         -4.1249    3.0665    2.2231 H         1 <0>         0.0922
     31 H9         -4.9208    2.7667    3.7867 H         1 <0>         0.0808
     32 H10        -5.1294    1.6141    2.4465 H         1 <0>         0.0711
     33 H11        -5.1859    4.7199   -0.3567 H         1 <0>         0.2645
     34 H12        -1.3865    2.5137    0.8388 H         1 <0>         0.1264
     35 H13        -1.4000    2.5747   -0.8673 H         1 <0>         0.1408
     36 H14         0.2950    3.8914    0.0099 H         1 <0>         0.1356
     37 H15         2.4143    5.1382    0.0055 H         1 <0>         0.1363
     38 H16         4.5577    3.9317   -0.0214 H         1 <0>         0.1345
     39 H17         4.5977    1.4723   -0.0339 H         1 <0>         0.1385
     40 H18         2.4920    0.2026   -0.0210 H         1 <0>         0.1543
     41 H19        -4.5911   -0.5744   -0.5001 H         1 <0>         0.1761
     42 H20        -5.9552   -0.6947    0.4437 H         1 <0>         0.1657
@<TRIPOS>BOND
     1    1    2 1
     2    1   24 1
     3    1   25 1
     4    1   26 1
     5    2    3 1
     6    2    4 1
     7    2    5 1
     8    3   27 1
     9    3   28 1
    10    3   29 1
    11    4   30 1
    12    4   31 1
    13    4   32 1
    14    5    6 1
    15    5   12 1
    16    5    7 1
    17    7    8 2
    18    7    9 am
    19    9   10 1
    20    9   23 1
    21   10   11 2
    22   10   13 1
    23   11   12 1
    24   12   33 1
    25   13   14 1
    26   14   15 1
    27   14   34 1
    28   14   35 1
    29   15   16 2
    30   15   17 1
    31   17   22 ar
    32   17   18 ar
    33   18   19 ar
    34   18   36 1
    35   19   20 ar
    36   19   37 1
    37   20   21 ar
    38   20   38 1
    39   21   22 ar
    40   21   39 1
    41   22   40 1
    42   23   41 1
    43   23   42 1
@<TRIPOS>MOLECULE
ZINC02686997
   43    45     0     0     0
SMALL
USER_CHARGES

@<TRIPOS>ATOM
      1 C1          0.3792   11.8887    0.7356 C.3       1 <0>        -0.0622
      2 O1          0.2265   10.4697    0.6640 O.3       1 <0>        -0.2025
      3 C2          0.8123    9.7358    1.6464 C.ar      1 <0>         0.1464
      4 C3          0.7033    8.3536    1.6375 C.ar      1 <0>        -0.1947
      5 C4          1.3022    7.6041    2.6408 C.ar      1 <0>         0.1281
      6 C5          2.0050    8.2394    3.6554 C.ar      1 <0>        -0.2319
      7 C6          2.1180    9.6212    3.6599 C.ar      1 <0>         0.1466
      8 C7          1.5195   10.3695    2.6572 C.ar      1 <0>        -0.3299
      9 O2          2.8103   10.2430    4.6502 O.3       1 <0>        -0.2103
     10 C8          2.8808   11.6692    4.5958 C.3       1 <0>        -0.0613
     11 N1          1.1926    6.2092    2.6325 N.am      1 <0>        -0.3241
     12 C9          1.1818    5.5411    1.4621 C.2       1 <0>         0.3105
     13 O3          1.1827    6.1526    0.4146 O.2       1 <0>        -0.3476
     14 C10         1.1688    4.0342    1.4548 C.3       1 <0>        -0.2096
     15 C11         1.1583    3.5312    0.0098 C.3       1 <0>         0.0112
     16 N2          1.1456    2.0663    0.0027 N.am      1 <0>        -0.2990
     17 C12        -0.0317    1.4011    0.0044 C.2       1 <0>         0.3918
     18 O4         -1.0860    2.0109    0.0073 O.2       1 <0>        -0.3402
     19 C13        -0.0209    0.0025   -0.0029 C.2       1 <0>        -0.4368
     20 C14         1.1760   -0.7190   -0.0119 C.2       1 <0>         0.0757
     21 C15         1.0242   -2.1026   -0.0185 C.2       1 <0>        -0.2229
     22 C16        -0.2147   -2.6467   -0.0158 C.2       1 <0>        -0.3079
     23 S1         -1.2613   -1.2638   -0.0040 S.3       1 <0>         0.5359
     24 N3          2.3547    0.0451   -0.0136 N.am      1 <0>        -0.2913
     25 H1          3.2422   -0.4157   -0.0200 H         1 <0>         0.2705
     26 C17         2.3041    1.3851   -0.0068 C.2       1 <0>         0.4055
     27 O5          3.3480    2.0087   -0.0085 O.2       1 <0>        -0.3813
     28 H2         -0.0494   12.2536    1.6690 H         1 <0>         0.0652
     29 H3          1.4386   12.1424    0.6986 H         1 <0>         0.0675
     30 H4         -0.1351   12.3524   -0.1061 H         1 <0>         0.1085
     31 H5          0.1529    7.8603    0.8501 H         1 <0>         0.1786
     32 H6          2.4671    7.6571    4.4389 H         1 <0>         0.1427
     33 H7          1.6044   11.4461    2.6634 H         1 <0>         0.1388
     34 H8          3.3618   11.9740    3.6663 H         1 <0>         0.0687
     35 H9          1.8739   12.0846    4.6370 H         1 <0>         0.0670
     36 H10         3.4605   12.0369    5.4424 H         1 <0>         0.1074
     37 H11         1.1244    5.7231    3.4691 H         1 <0>         0.2354
     38 H12         0.2779    3.6760    1.9706 H         1 <0>         0.1138
     39 H13         2.0578    3.6607    1.9630 H         1 <0>         0.1159
     40 H14         2.0492    3.8894   -0.5060 H         1 <0>         0.1375
     41 H15         0.2693    3.9047   -0.4984 H         1 <0>         0.1363
     42 H16         1.8949   -2.7416   -0.0253 H         1 <0>         0.1499
     43 H17        -0.4866   -3.6919   -0.0206 H         1 <0>         0.1981
@<TRIPOS>BOND
     1    1    2 1
     2    1   28 1
     3    1   29 1
     4    1   30 1
     5    2    3 1
     6    3    8 ar
     7    3    4 ar
     8    4    5 ar
     9    4   31 1
    10    5    6 ar
    11    5   11 1
    12    6    7 ar
    13    6   32 1
    14    7    8 ar
    15    7    9 1
    16    8   33 1
    17    9   10 1
    18   10   34 1
    19   10   35 1
    20   10   36 1
    21   11   12 am
    22   11   37 1
    23   12   13 2
    24   12   14 1
    25   14   15 1
    26   14   38 1
    27   14   39 1
    28   15   16 1
    29   15   40 1
    30   15   41 1
    31   16   26 am
    32   16   17 am
    33   17   18 2
    34   17   19 1
    35   19   23 1
    36   19   20 2
    37   20   21 1
    38   20   24 1
    39   21   22 2
    40   21   42 1
    41   22   23 1
    42   22   43 1
    43   24   25 1
    44   24   26 am
    45   26   27 2
@<TRIPOS>MOLECULE
ZINC02695916
   47    49     0     0     0
SMALL
USER_CHARGES

@<TRIPOS>ATOM
      1 C1          4.2797    6.6882    1.2784 C.3       1 <0>        -0.2105
      2 C2          2.8469    6.1659    1.1567 C.3       1 <0>        -0.1624
      3 C3          2.8749    4.6744    0.8168 C.3       1 <0>        -0.1590
      4 C4          1.4419    4.1520    0.6952 C.3       1 <0>        -0.1596
      5 C5          1.4700    2.6605    0.3553 C.3       1 <0>        -0.1880
      6 C6          0.0370    2.1382    0.2336 C.3       1 <0>        -0.0475
      7 N1          0.0638    0.7100   -0.0918 N.pl3     1 <0>        -0.1727
      8 C7          0.0743   -0.2223    0.9234 C.cat     1 <0>         0.3260
      9 H1         -0.0085   -0.4130    2.9549 H         1 <0>         0.3245
     10 C8          0.1006   -1.6562    0.5962 C.2       1 <0>        -0.2874
     11 C9          0.1146   -2.0430   -0.7370 C.2       1 <0>         0.1214
     12 C10         0.1033   -1.0621   -1.7390 C.2       1 <0>        -0.3377
     13 C11         0.0726    0.3112   -1.4058 C.2       1 <0>         0.2609
     14 N2          0.0574    1.2146   -2.3773 N.2       1 <0>        -0.2933
     15 C12         0.0658    0.8605   -3.6628 C.2       1 <0>         0.2284
     16 C13         0.0488    1.8653   -4.6475 C.2       1 <0>        -0.1638
     17 C14         0.0577    1.5162   -5.9652 C.2       1 <0>        -0.0087
     18 C15         0.0841    0.1609   -6.3215 C.2       1 <0>        -0.1736
     19 C16         0.1001   -0.7917   -5.3623 C.2       1 <0>         0.0042
     20 N3          0.0911   -0.4526   -4.0421 N.am      1 <0>        -0.1340
     21 C17         0.1172   -1.4303   -3.1096 C.2       1 <0>         0.3557
     22 O1          0.1392   -2.6030   -3.4383 O.2       1 <0>        -0.2993
     23 C18         0.1126   -2.6630    1.6634 C.2       1 <0>         0.3800
     24 O2         -0.0051   -2.3198    2.8252 O.2       1 <0>        -0.3916
     25 N4          0.2539   -3.9679    1.3573 N.am      1 <0>        -0.3993
     26 H2          4.7986    6.1452    2.0683 H         1 <0>         0.0764
     27 H3          4.8017    6.5408    0.3328 H         1 <0>         0.0757
     28 H4          4.2599    7.7508    1.5205 H         1 <0>         0.0853
     29 H5          2.3281    6.7088    0.3668 H         1 <0>         0.0837
     30 H6          2.3250    6.3133    2.1022 H         1 <0>         0.0835
     31 H7          3.3937    4.1313    1.6068 H         1 <0>         0.0851
     32 H8          3.3968    4.5269   -0.1287 H         1 <0>         0.0873
     33 H9          0.9231    4.6950   -0.0948 H         1 <0>         0.0944
     34 H10         0.9200    4.2994    1.6407 H         1 <0>         0.0836
     35 H11         1.9888    2.1175    1.1453 H         1 <0>         0.0860
     36 H12         1.9919    2.5130   -0.5902 H         1 <0>         0.1126
     37 H13        -0.4818    2.6811   -0.5563 H         1 <0>         0.1561
     38 H14        -0.4849    2.2856    1.1792 H         1 <0>         0.1029
     39 H15         0.1344   -3.0903   -1.0001 H         1 <0>         0.1807
     40 H16         0.0292    2.9065   -4.3611 H         1 <0>         0.1904
     41 H17         0.0448    2.2789   -6.7296 H         1 <0>         0.1749
     42 H18         0.0912   -0.1227   -7.3636 H         1 <0>         0.1837
     43 H19         0.1209   -1.8337   -5.6453 H         1 <0>         0.2120
     44 H20         0.3477   -4.2415    0.4314 H         1 <0>         0.2248
     45 H21         0.2617   -4.6336    2.0628 H         1 <0>         0.2572
     46 N5          0.0654    0.2374    2.1725 N.pl3     1 <0>        -0.3166
     47 H22         0.1330    1.2467    2.3486 H         1 <0>         0.2676
@<TRIPOS>BOND
     1    1    2 1
     2    1   26 1
     3    1   27 1
     4    1   28 1
     5    2    3 1
     6    2   29 1
     7    2   30 1
     8    3    4 1
     9    3   31 1
    10    3   32 1
    11    4    5 1
    12    4   33 1
    13    4   34 1
    14    5    6 1
    15    5   35 1
    16    5   36 1
    17    6    7 1
    18    6   37 1
    19    6   38 1
    20    7   13 1
    21    7    8 1
    22    8   10 1
    23    8   46 2
    24    9   46 1
    25   10   11 2
    26   10   23 1
    27   11   12 1
    28   11   39 1
    29   12   21 1
    30   12   13 2
    31   13   14 1
    32   14   15 2
    33   15   20 1
    34   15   16 1
    35   16   17 2
    36   16   40 1
    37   17   18 1
    38   17   41 1
    39   18   19 2
    40   18   42 1
    41   19   20 1
    42   19   43 1
    43   20   21 am
    44   21   22 2
    45   23   24 2
    46   23   25 am
    47   25   44 1
    48   25   45 1
    49   46   47 1
@<TRIPOS>MOLECULE
ZINC02701715
   46    49     0     0     0
SMALL
USER_CHARGES

@<TRIPOS>ATOM
      1 C1         -2.0993    6.4026   -0.2851 C.3       1 <0>        -0.0687
      2 O1         -0.7957    5.8847   -0.5575 O.3       1 <0>        -0.1962
      3 C2         -0.6593    4.5326   -0.5711 C.ar      1 <0>         0.1357
      4 C3          0.5785    3.9616   -0.8287 C.ar      1 <0>        -0.1561
      5 C4          0.7145    2.5869   -0.8416 C.ar      1 <0>        -0.0551
      6 C5         -0.3817    1.7803   -0.5978 C.ar      1 <0>        -0.1955
      7 C6         -1.6176    2.3469   -0.3463 C.ar      1 <0>        -0.0778
      8 C7         -1.7577    3.7211   -0.3268 C.ar      1 <0>        -0.2135
      9 C8         -0.2304    0.2810   -0.6124 C.3       1 <0>         0.0100
     10 N1          0.1071   -0.1888    0.7336 N.pl3     1 <0>        -0.1669
     11 C9         -0.8996   -0.5279    1.6117 C.cat     1 <0>         0.3285
     12 C10        -0.5597   -1.0001    2.9629 C.2       1 <0>        -0.2870
     13 C11         0.7764   -1.0950    3.3277 C.2       1 <0>         0.1206
     14 C12         1.7697   -0.7399    2.4038 C.2       1 <0>        -0.3369
     15 C13         1.4243   -0.2932    1.1080 C.2       1 <0>         0.2647
     16 N2          2.3869    0.0420    0.2587 N.2       1 <0>        -0.2967
     17 C14         3.6751   -0.0440    0.5915 C.2       1 <0>         0.2280
     18 C15         4.6494    0.3186   -0.3564 C.2       1 <0>        -0.1667
     19 C16         5.9700    0.2370   -0.0283 C.2       1 <0>        -0.0085
     20 C17         6.3392   -0.2079    1.2484 C.2       1 <0>        -0.1751
     21 C18         5.3895   -0.5532    2.1467 C.2       1 <0>         0.0049
     22 N3          4.0666   -0.4746    1.8285 N.am      1 <0>        -0.1343
     23 C19         3.1433   -0.8272    2.7502 C.2       1 <0>         0.3560
     24 O2          3.4827   -1.2120    3.8548 O.2       1 <0>        -0.3007
     25 C20        -1.6178   -1.3662    3.9113 C.2       1 <0>         0.3804
     26 O3         -2.7800   -1.3801    3.5507 O.2       1 <0>        -0.3929
     27 N4         -1.3025   -1.6867    5.1818 N.am      1 <0>        -0.4000
     28 H1         -2.7976    6.0454   -1.0421 H         1 <0>         0.0756
     29 H2         -2.4260    6.0654    0.6986 H         1 <0>         0.0721
     30 H3         -2.0688    7.4920   -0.3041 H         1 <0>         0.1270
     31 H4          1.4351    4.5913   -1.0189 H         1 <0>         0.1595
     32 H5          1.6780    2.1419   -1.0418 H         1 <0>         0.1489
     33 H6         -2.4734    1.7146   -0.1609 H         1 <0>         0.1132
     34 H7         -2.7224    4.1632   -0.1259 H         1 <0>         0.1523
     35 H8         -1.1670   -0.1756   -0.9323 H         1 <0>         0.1060
     36 H9          0.5644    0.0027   -1.3043 H         1 <0>         0.1571
     37 H10        -2.9275   -0.7142    1.7652 H         1 <0>         0.3221
     38 H11         1.0485   -1.4388    4.3146 H         1 <0>         0.1797
     39 H12         4.3531    0.6601   -1.3372 H         1 <0>         0.1887
     40 H13         6.7269    0.5137   -0.7474 H         1 <0>         0.1744
     41 H14         7.3836   -0.2754    1.5150 H         1 <0>         0.1832
     42 H15         5.6827   -0.8951    3.1283 H         1 <0>         0.2116
     43 H16        -0.3761   -1.6755    5.4693 H         1 <0>         0.2249
     44 H17        -2.0019   -1.9287    5.8088 H         1 <0>         0.2564
     45 N5         -2.1525   -0.4001    1.1808 N.pl3     1 <0>        -0.3211
     46 H18        -2.3390    0.0146    0.2602 H         1 <0>         0.2685
@<TRIPOS>BOND
     1    1    2 1
     2    1   28 1
     3    1   29 1
     4    1   30 1
     5    2    3 1
     6    3    8 ar
     7    3    4 ar
     8    4    5 ar
     9    4   31 1
    10    5    6 ar
    11    5   32 1
    12    6    7 ar
    13    6    9 1
    14    7    8 ar
    15    7   33 1
    16    8   34 1
    17    9   10 1
    18    9   35 1
    19    9   36 1
    20   10   15 1
    21   10   11 1
    22   11   12 1
    23   11   45 2
    24   12   13 2
    25   12   25 1
    26   13   14 1
    27   13   38 1
    28   14   23 1
    29   14   15 2
    30   15   16 1
    31   16   17 2
    32   17   22 1
    33   17   18 1
    34   18   19 2
    35   18   39 1
    36   19   20 1
    37   19   40 1
    38   20   21 2
    39   20   41 1
    40   21   22 1
    41   21   42 1
    42   22   23 am
    43   23   24 2
    44   25   26 2
    45   25   27 am
    46   27   43 1
    47   27   44 1
    48   37   45 1
    49   45   46 1
@<TRIPOS>MOLECULE
ZINC02701912
   43    45     0     0     0
SMALL
USER_CHARGES

@<TRIPOS>ATOM
      1 C1          2.1305    7.9715   -5.7843 C.2       1 <0>        -0.1995
      2 C2          1.4902    7.6057   -4.7016 C.2       1 <0>        -0.1750
      3 C3          1.7127    6.2325   -4.1222 C.3       1 <0>         0.0251
      4 O1          1.8772    6.3351   -2.6832 O.3       1 <0>        -0.2652
      5 C4          2.0856    5.1923   -2.0107 C.2       1 <0>         0.3042
      6 O2          2.1292    4.1411   -2.6047 O.2       1 <0>        -0.3385
      7 C5          2.2653    5.2205   -0.5147 C.3       1 <0>        -0.0684
      8 H1          3.1376    5.8219   -0.2588 H         1 <0>         0.1414
      9 C6          2.4436    3.7950    0.0132 C.3       1 <0>         0.0341
     10 H2          3.1594    3.2659   -0.6159 H         1 <0>         0.1476
     11 C7          1.1321    3.0574    0.0009 C.2       1 <0>        -0.3120
     12 C8         -0.0694    3.6975    0.0028 C.2       1 <0>         0.2395
     13 N1         -1.2324    2.9609    0.0215 N.am      1 <0>        -0.3162
     14 H3         -2.1161    3.4287    0.0389 H         1 <0>         0.2663
     15 C9         -1.1885    1.6167    0.0165 C.2       1 <0>         0.4130
     16 O3         -2.2255    0.9821    0.0255 O.2       1 <0>        -0.3772
     17 N2         -0.0111    0.9658    0.0074 N.am      1 <0>        -0.3401
     18 H4          0.0025   -0.0341    0.0062 H         1 <0>         0.2792
     19 C10         1.1487    1.6488   -0.0001 C.2       1 <0>         0.3698
     20 O4          2.2107    1.0500   -0.0080 O.2       1 <0>        -0.3504
     21 N3         -0.1548    5.0708   -0.0174 N.pl3     1 <0>        -0.3059
     22 C11         1.0280    5.8046    0.1408 C.2       1 <0>         0.0303
     23 C12         1.0637    6.9362    0.8187 C.2       1 <0>        -0.2384
     24 C13         2.9695    3.8500    1.4244 C.ar      1 <0>        -0.0871
     25 C14         2.2286    4.4706    2.4132 C.ar      1 <0>        -0.1154
     26 C15         2.7059    4.5174    3.7088 C.ar      1 <0>        -0.1568
     27 C16         3.9349    3.9514    4.0149 C.ar      1 <0>         0.0714
     28 C17         4.6789    3.3343    3.0197 C.ar      1 <0>        -0.1539
     29 C18         4.1945    3.2848    1.7270 C.ar      1 <0>        -0.0892
     30 O5          4.4096    4.0018    5.2873 O.3       1 <0>        -0.2915
     31 H5          2.8179    7.2889   -6.2618 H         1 <0>         0.1159
     32 H6          1.9711    8.9557   -6.1996 H         1 <0>         0.1209
     33 H7          0.8028    8.2884   -4.2242 H         1 <0>         0.1339
     34 H8          2.6096    5.7944   -4.5601 H         1 <0>         0.0970
     35 H9          0.8533    5.6003   -4.3456 H         1 <0>         0.0978
     36 H10        -1.0076    5.5169   -0.1377 H         1 <0>         0.2442
     37 H11         0.1628    7.3228    1.2720 H         1 <0>         0.1241
     38 H12         1.9937    7.4758    0.9203 H         1 <0>         0.1428
     39 H13         1.2742    4.9155    2.1734 H         1 <0>         0.1348
     40 H14         2.1250    4.9987    4.4817 H         1 <0>         0.1372
     41 H15         5.6359    2.8927    3.2556 H         1 <0>         0.1416
     42 H16         4.7733    2.8045    0.9519 H         1 <0>         0.1439
     43 H17         4.9448    4.7845    5.4767 H         1 <0>         0.2248
@<TRIPOS>BOND
     1    1    2 2
     2    1   31 1
     3    1   32 1
     4    2    3 1
     5    2   33 1
     6    3    4 1
     7    3   34 1
     8    3   35 1
     9    4    5 1
    10    5    6 2
    11    5    7 1
    12    7    8 1
    13    7   22 1
    14    7    9 1
    15    9   10 1
    16    9   11 1
    17    9   24 1
    18   11   19 1
    19   11   12 2
    20   12   13 1
    21   12   21 1
    22   13   14 1
    23   13   15 am
    24   15   16 2
    25   15   17 am
    26   17   18 1
    27   17   19 am
    28   19   20 2
    29   21   22 1
    30   21   36 1
    31   22   23 2
    32   23   37 1
    33   23   38 1
    34   24   29 ar
    35   24   25 ar
    36   25   26 ar
    37   25   39 1
    38   26   27 ar
    39   26   40 1
    40   27   28 ar
    41   27   30 1
    42   28   29 ar
    43   28   41 1
    44   29   42 1
    45   30   43 1
@<TRIPOS>MOLECULE
ZINC02706520
   40    42     0     0     0
SMALL
USER_CHARGES

@<TRIPOS>ATOM
      1 C1         -0.0155    1.0677    0.0134 C.3       1 <0>        -0.0693
      2 N1         -0.7043    1.5191    1.2249 N.am      1 <0>        -0.2743
      3 C2          0.0138    1.7504    2.3730 C.2       1 <0>         0.2557
      4 C3         -0.6374    2.1719    3.4987 C.2       1 <0>        -0.4269
      5 C4         -2.0278    2.3584    3.4526 C.2       1 <0>         0.3670
      6 O1         -2.6295    2.7341    4.4441 O.2       1 <0>        -0.3654
      7 N2         -2.6936    2.1199    2.3055 N.am      1 <0>        -0.3033
      8 C5         -2.0363    1.7103    1.2053 C.2       1 <0>         0.4139
      9 O2         -2.6556    1.5053    0.1793 O.2       1 <0>        -0.3742
     10 C6         -4.1448    2.3140    2.2542 C.3       1 <0>        -0.0584
     11 N3          1.3719    1.5604    2.3895 N.pl3     1 <0>        -0.2435
     12 N4          2.0982    1.7981    3.5637 N.am      1 <0>        -0.2668
     13 C7          3.4329    1.6115    3.5799 C.2       1 <0>         0.3600
     14 O3          4.0067    1.2368    2.5754 O.2       1 <0>        -0.3773
     15 C8          4.1974    1.8616    4.8158 C.ar      1 <0>        -0.1183
     16 C9          3.5734    2.4065    5.9285 C.ar      1 <0>        -0.0867
     17 C10         4.2880    2.6445    7.0956 C.ar      1 <0>        -0.1440
     18 C11         5.6162    2.3515    7.1817 C.ar      1 <0>        -0.0758
     19 C12         6.2894    1.7977    6.0791 C.ar      1 <0>        -0.0452
     20 C13         5.5769    1.5426    4.8823 C.ar      1 <0>         0.0078
     21 C14         6.2507    0.9958    3.7819 C.ar      1 <0>        -0.1243
     22 C15         7.5788    0.7073    3.8791 C.ar      1 <0>        -0.1203
     23 C16         8.2806    0.9530    5.0570 C.ar      1 <0>        -0.1194
     24 C17         7.6591    1.4876    6.1438 C.ar      1 <0>        -0.1199
     25 H1          0.0152   -0.0218   -0.0025 H         1 <0>         0.0937
     26 H2          1.0015    1.4600    0.0061 H         1 <0>         0.0838
     27 H3         -0.5505    1.4290   -0.8648 H         1 <0>         0.1295
     28 H4         -0.0898    2.3585    4.4107 H         1 <0>         0.1618
     29 H5         -4.5011    2.6493    3.2282 H         1 <0>         0.1227
     30 H6         -4.3845    3.0650    1.5014 H         1 <0>         0.0905
     31 H7         -4.6284    1.3723    1.9949 H         1 <0>         0.0906
     32 H8          1.8296    1.2616    1.5882 H         1 <0>         0.2811
     33 H9          1.6405    2.0970    4.3650 H         1 <0>         0.2677
     34 H10         2.5217    2.6484    5.8868 H         1 <0>         0.1240
     35 H11         3.7821    3.0691    7.9500 H         1 <0>         0.1374
     36 H12         6.1524    2.5448    8.0991 H         1 <0>         0.1380
     37 H13         5.7188    0.7999    2.8626 H         1 <0>         0.1896
     38 H14         8.0946    0.2818    3.0310 H         1 <0>         0.1335
     39 H15         9.3329    0.7155    5.1090 H         1 <0>         0.1306
     40 H16         8.2152    1.6722    7.0510 H         1 <0>         0.1343
@<TRIPOS>BOND
     1    1    2 1
     2    1   25 1
     3    1   26 1
     4    1   27 1
     5    2    8 am
     6    2    3 1
     7    3    4 2
     8    3   11 1
     9    4    5 1
    10    4   28 1
    11    5    6 2
    12    5    7 am
    13    7    8 am
    14    7   10 1
    15    8    9 2
    16   10   29 1
    17   10   30 1
    18   10   31 1
    19   11   12 1
    20   11   32 1
    21   12   13 am
    22   12   33 1
    23   13   14 2
    24   13   15 1
    25   15   20 ar
    26   15   16 ar
    27   16   17 ar
    28   16   34 1
    29   17   18 ar
    30   17   35 1
    31   18   19 ar
    32   18   36 1
    33   19   24 ar
    34   19   20 ar
    35   20   21 ar
    36   21   22 ar
    37   21   37 1
    38   22   23 ar
    39   22   38 1
    40   23   24 ar
    41   23   39 1
    42   24   40 1
@<TRIPOS>MOLECULE
ZINC02708086
   38    40     0     0     0
SMALL
USER_CHARGES

@<TRIPOS>ATOM
      1 C1          0.2689   -0.0013    0.7382 C.ar      1 <0>        -0.1907
      2 C2          0.2485    1.3796    0.7380 C.ar      1 <0>        -0.0077
      3 C3          1.1682    2.0860   -0.0153 C.ar      1 <0>        -0.7834
      4 C4          2.1109    1.4128   -0.7705 C.ar      1 <0>        -0.0087
      5 C5          2.1367    0.0320   -0.7746 C.ar      1 <0>        -0.1543
      6 C6          1.2144   -0.6805   -0.0191 C.ar      1 <0>         0.1254
      7 N1          1.2375   -2.0790   -0.0214 N.am      1 <0>        -0.3276
      8 C7          2.4099   -2.7334   -0.1379 C.2       1 <0>         0.3648
      9 O1          3.4555   -2.1117   -0.1444 O.2       1 <0>        -0.3525
     10 C8          2.4252   -4.2001   -0.2573 C.2       1 <0>        -0.1729
     11 C9          1.2549   -4.9268   -0.2467 C.2       1 <0>        -0.3271
     12 S1          1.8022   -6.5625   -0.4136 S.3       1 <0>         0.4100
     13 C10         3.5469   -6.2713   -0.4854 C.2       1 <0>        -0.2796
     14 C11         3.6734   -4.9284   -0.3839 C.2       1 <0>        -0.0642
     15 C12         5.0456   -4.2667   -0.4039 C.3       1 <0>        -0.0987
     16 C13         6.1057   -5.3232   -0.0873 C.3       1 <0>        -0.1643
     17 C14         5.9341   -6.5288   -1.0158 C.3       1 <0>        -0.1570
     18 C15         4.6491   -7.2745   -0.6268 C.3       1 <0>        -0.0783
     19 S2          1.1389    3.8478   -0.0128 S.o2      1 <0>         2.7642
     20 O2          1.7531    4.2659   -1.2240 O.2       1 <0>        -0.9187
     21 O3         -0.1822    4.2314    0.3434 O.2       1 <0>        -0.9212
     22 N2          2.1262    4.3522    1.2173 N.pl3     1 <0>        -0.9312
     23 H1         -0.4494   -0.5524    1.3271 H         1 <0>         0.1366
     24 H2         -0.4893    1.9083    1.3232 H         1 <0>         0.1542
     25 H3          2.8278    1.9674   -1.3578 H         1 <0>         0.1569
     26 H4          2.8734   -0.4932   -1.3643 H         1 <0>         0.1683
     27 H5          0.4096   -2.5778    0.0608 H         1 <0>         0.2360
     28 H6          0.2413   -4.5646   -0.1578 H         1 <0>         0.1832
     29 H7          5.2336   -3.8448   -1.3912 H         1 <0>         0.1018
     30 H8          5.0806   -3.4750    0.3446 H         1 <0>         0.1218
     31 H9          7.0978   -4.8947   -0.2299 H         1 <0>         0.0868
     32 H10         5.9965   -5.6467    0.9479 H         1 <0>         0.0858
     33 H11         5.8598   -6.1871   -2.0482 H         1 <0>         0.0901
     34 H12         6.7908   -7.1946   -0.9121 H         1 <0>         0.0859
     35 H13         4.3928   -7.9947   -1.4038 H         1 <0>         0.0948
     36 H14         4.7979   -7.7933    0.3202 H         1 <0>         0.0982
     37 H15         2.5850    3.6999    1.7694 H         1 <0>         0.2308
     38 H16         2.2456    5.3000    1.3857 H         1 <0>         0.2427
@<TRIPOS>BOND
     1    1    6 ar
     2    1    2 ar
     3    1   23 1
     4    2    3 ar
     5    2   24 1
     6    3    4 ar
     7    3   19 1
     8    4    5 ar
     9    4   25 1
    10    5    6 ar
    11    5   26 1
    12    6    7 1
    13    7    8 am
    14    7   27 1
    15    8    9 2
    16    8   10 1
    17   10   14 1
    18   10   11 2
    19   11   12 1
    20   11   28 1
    21   12   13 1
    22   13   18 1
    23   13   14 2
    24   14   15 1
    25   15   16 1
    26   15   29 1
    27   15   30 1
    28   16   17 1
    29   16   31 1
    30   16   32 1
    31   17   18 1
    32   17   33 1
    33   17   34 1
    34   18   35 1
    35   18   36 1
    36   19   20 2
    37   19   21 2
    38   19   22 1
    39   22   37 1
    40   22   38 1
@<TRIPOS>MOLECULE
ZINC02710542
   38    40     0     0     0
SMALL
USER_CHARGES

@<TRIPOS>ATOM
      1 C1         -1.2646   -2.1417    3.7224 C.3       1 <0>        -0.1943
      2 C2         -1.7428   -2.0896    2.2700 C.3       1 <0>        -0.1899
      3 C3         -1.8974   -0.6525    1.8433 C.2       1 <0>         0.3183
      4 O1         -1.6493    0.2419    2.6240 O.2       1 <0>        -0.3397
      5 N1         -2.3111   -0.3613    0.5941 N.am      1 <0>        -0.2327
      6 C4         -2.5134    0.9786    0.0192 C.3       1 <0>         0.1570
      7 H1         -3.2762    1.5203    0.5785 H         1 <0>         0.1402
      8 C5         -2.9770    0.7243   -1.3976 C.2       1 <0>        -0.2055
      9 C6         -3.0209   -0.5979   -1.5706 C.2       1 <0>         0.0656
     10 N2         -2.6356   -1.2728   -0.4194 N.pl3     1 <0>        -0.2961
     11 C7         -3.4270   -1.2588   -2.8248 C.2       1 <0>        -0.1736
     12 C8         -3.5024   -2.5972   -3.1106 C.2       1 <0>        -0.2021
     13 C9         -3.9176   -2.9831   -4.3654 C.2       1 <0>        -0.1635
     14 C10        -4.2274   -2.0303   -5.2824 C.2       1 <0>        -0.3444
     15 S1         -3.9408   -0.5238   -4.3686 S.3       1 <0>         0.3678
     16 C11        -1.2187    1.7497    0.0173 C.ar      1 <0>        -0.2361
     17 C12        -0.0126    1.0758    0.0080 C.ar      1 <0>        -0.0027
     18 C13         1.1755    1.7827    0.0004 C.ar      1 <0>        -0.2579
     19 C14         1.1601    3.1655    0.0071 C.ar      1 <0>        -0.0350
     20 C15        -0.0430    3.8438    0.0217 C.ar      1 <0>        -0.2629
     21 C16        -1.2368    3.1367    0.0298 C.ar      1 <0>         0.2542
     22 N3          2.4660    1.0583   -0.0153 N.pl3     1 <0>         0.5718
     23 O2          2.4808   -0.1596   -0.0216 O.2       1 <0>        -0.4313
     24 O3          3.5134    1.6801   -0.0220 O.3       1 <0>        -0.4307
     25 H2         -0.3047   -1.6323    3.8074 H         1 <0>         0.0977
     26 H3         -1.9955   -1.6489    4.3635 H         1 <0>         0.0846
     27 H4         -1.1528   -3.1811    4.0311 H         1 <0>         0.0563
     28 H5         -2.7027   -2.5990    2.1851 H         1 <0>         0.0843
     29 H6         -1.0120   -2.5824    1.6289 H         1 <0>         0.0984
     30 H7         -3.2265    1.4744   -2.1335 H         1 <0>         0.1729
     31 H8         -2.5969   -2.2379   -0.3298 H         1 <0>         0.2504
     32 H9         -3.2447   -3.3347   -2.3650 H         1 <0>         0.1355
     33 H10        -3.9910   -4.0304   -4.6190 H         1 <0>         0.1313
     34 H11        -4.5611   -2.1526   -6.3023 H         1 <0>         0.1781
     35 H12         0.0021   -0.0041    0.0020 H         1 <0>         0.1296
     36 H13         2.0895    3.7154    0.0004 H         1 <0>         0.1237
     37 H14        -0.0545    4.9237    0.0273 H         1 <0>         0.1272
     38 O4         -2.4218    3.8018    0.0447 O.3       1 <0>        -0.5467
@<TRIPOS>BOND
     1    1    2 1
     2    1   25 1
     3    1   26 1
     4    1   27 1
     5    2    3 1
     6    2   28 1
     7    2   29 1
     8    3    4 2
     9    3    5 am
    10    5   10 1
    11    5    6 1
    12    6    7 1
    13    6    8 1
    14    6   16 1
    15    8    9 2
    16    8   30 1
    17    9   10 1
    18    9   11 1
    19   10   31 1
    20   11   15 1
    21   11   12 2
    22   12   13 1
    23   12   32 1
    24   13   14 2
    25   13   33 1
    26   14   15 1
    27   14   34 1
    28   16   21 ar
    29   16   17 ar
    30   17   18 ar
    31   17   35 1
    32   18   19 ar
    33   18   22 1
    34   19   20 ar
    35   19   36 1
    36   20   21 ar
    37   20   37 1
    38   21   38 1
    39   22   23 2
    40   22   24 1
@<TRIPOS>MOLECULE
ZINC02718696
   45    48     0     0     0
SMALL
USER_CHARGES

@<TRIPOS>ATOM
      1 C1         -2.5519   -7.9327    1.5352 C.3       1 <0>        -0.0620
      2 O1         -1.8909   -7.8315    0.2723 O.3       1 <0>        -0.2139
      3 C2         -0.5906   -7.4367    0.2863 C.ar      1 <0>         0.0960
      4 C3          0.1121   -7.3171   -0.9038 C.ar      1 <0>        -0.1558
      5 C4          1.4337   -6.9152   -0.8869 C.ar      1 <0>        -0.0760
      6 C5          2.0561   -6.6321    0.3149 C.ar      1 <0>        -0.1052
      7 C6          1.3595   -6.7559    1.5029 C.ar      1 <0>        -0.0744
      8 C7          0.0361   -7.1521    1.4909 C.ar      1 <0>        -0.2189
      9 C8          3.4978   -6.1938    0.3305 C.3       1 <0>        -0.0382
     10 C9          3.5674   -4.6918    0.2292 C.2       1 <0>        -0.2038
     11 C10         4.8175   -4.0352    0.2241 C.2       1 <0>         0.3131
     12 O2          5.8577   -4.6671    0.3003 O.2       1 <0>        -0.3430
     13 N1          4.8292   -2.6858    0.1267 N.am      1 <0>        -0.3102
     14 H1          5.6929   -2.1820    0.1123 H         1 <0>         0.2486
     15 C11         3.6386   -2.0284    0.0487 C.2       1 <0>         0.2119
     16 N2          2.5006   -2.7008    0.0585 N.2       1 <0>        -0.2010
     17 N3          2.4668   -3.9822    0.1453 N.2       1 <0>         0.0447
     18 N4          3.6208   -0.6626   -0.0460 N.pl3     1 <0>        -0.2730
     19 C12         2.4018    0.0256   -0.0137 C.ar      1 <0>         0.0590
     20 C13         1.3519   -0.4565    0.7569 C.ar      1 <0>        -0.1128
     21 C14         0.1490    0.2216    0.7882 C.ar      1 <0>        -0.1043
     22 C15        -0.0146    1.3851    0.0509 C.ar      1 <0>         0.0110
     23 C16         1.0352    1.8718   -0.7191 C.ar      1 <0>         0.0350
     24 C17         2.2422    1.1903   -0.7514 C.ar      1 <0>        -0.1535
     25 O3          0.8963    3.0166   -1.4423 O.3       1 <0>        -0.2057
     26 C18        -0.4408    3.4688   -1.6817 C.3       1 <0>        -0.0512
     27 C19        -1.2170    3.3959   -0.3598 C.3       1 <0>        -0.0525
     28 O4         -1.2110    2.0353    0.0877 O.3       1 <0>        -0.2017
     29 H2         -3.5813   -8.2565    1.3816 H         1 <0>         0.1052
     30 H3         -2.0321   -8.6589    2.1602 H         1 <0>         0.0661
     31 H4         -2.5465   -6.9600    2.0271 H         1 <0>         0.0686
     32 H5         -0.3734   -7.5385   -1.8428 H         1 <0>         0.1414
     33 H6          1.9811   -6.8216   -1.8131 H         1 <0>         0.1327
     34 H7          1.8492   -6.5388    2.4406 H         1 <0>         0.1280
     35 H8         -0.5089   -7.2444    2.4187 H         1 <0>         0.1321
     36 H9          4.0223   -6.6396   -0.5146 H         1 <0>         0.1085
     37 H10         3.9659   -6.5173    1.2602 H         1 <0>         0.1072
     38 H11         4.4526   -0.1717   -0.1355 H         1 <0>         0.2436
     39 H12         1.4762   -1.3620    1.3322 H         1 <0>         0.1700
     40 H13        -0.6663   -0.1552    1.3879 H         1 <0>         0.1537
     41 H14         3.0582    1.5656   -1.3510 H         1 <0>         0.1445
     42 H15        -0.4220    4.4978   -2.0406 H         1 <0>         0.1221
     43 H16        -0.9177    2.8292   -2.4244 H         1 <0>         0.0975
     44 H17        -0.7364    4.0312    0.3842 H         1 <0>         0.0937
     45 H18        -2.2438    3.7258   -0.5177 H         1 <0>         0.1232
@<TRIPOS>BOND
     1    1    2 1
     2    1   29 1
     3    1   30 1
     4    1   31 1
     5    2    3 1
     6    3    8 ar
     7    3    4 ar
     8    4    5 ar
     9    4   32 1
    10    5    6 ar
    11    5   33 1
    12    6    7 ar
    13    6    9 1
    14    7    8 ar
    15    7   34 1
    16    8   35 1
    17    9   10 1
    18    9   36 1
    19    9   37 1
    20   10   17 2
    21   10   11 1
    22   11   12 2
    23   11   13 am
    24   13   14 1
    25   13   15 1
    26   15   16 2
    27   15   18 1
    28   16   17 1
    29   18   19 1
    30   18   38 1
    31   19   24 ar
    32   19   20 ar
    33   20   21 ar
    34   20   39 1
    35   21   22 ar
    36   21   40 1
    37   22   28 1
    38   22   23 ar
    39   23   24 ar
    40   23   25 1
    41   24   41 1
    42   25   26 1
    43   26   27 1
    44   26   42 1
    45   26   43 1
    46   27   28 1
    47   27   44 1
    48   27   45 1
@<TRIPOS>MOLECULE
ZINC02718696
   45    48     0     0     0
SMALL
USER_CHARGES

@<TRIPOS>ATOM
      1 C1         -2.5502   -7.9254    1.5709 C.3       1 <0>        -0.0621
      2 O1         -1.8918   -7.8292    0.3063 O.3       1 <0>        -0.2137
      3 C2         -0.5914   -7.4347    0.3160 C.ar      1 <0>         0.0940
      4 C3          0.1088   -7.3198   -0.8760 C.ar      1 <0>        -0.1579
      5 C4          1.4305   -6.9182   -0.8635 C.ar      1 <0>        -0.0802
      6 C5          2.0555   -6.6306    0.3359 C.ar      1 <0>        -0.1117
      7 C6          1.3614   -6.7497    1.5258 C.ar      1 <0>        -0.0779
      8 C7          0.0379   -7.1456    1.5182 C.ar      1 <0>        -0.2207
      9 C8          3.4974   -6.1927    0.3468 C.3       1 <0>        -0.0455
     10 C9          3.5671   -4.6911    0.2396 C.2       1 <0>        -0.1598
     11 C10         4.8175   -4.0352    0.2237 C.2       1 <0>         0.2823
     12 O2          5.8577   -4.6671    0.2999 O.2       1 <0>        -0.3191
     13 N1          4.8292   -2.6859    0.1259 N.2       1 <0>        -0.3372
     14 H1          1.6391   -2.1961    0.0019 H         1 <0>         0.2997
     15 C11         3.6386   -2.0285    0.0480 C.2       1 <0>         0.2309
     16 N2          2.5005   -2.7005    0.0635 N.pl3     1 <0>        -0.2129
     17 N3          2.4665   -3.9815    0.1553 N.2       1 <0>        -0.0187
     18 N4          3.6208   -0.6627   -0.0471 N.pl3     1 <0>        -0.2710
     19 C12         2.4019    0.0256   -0.0148 C.ar      1 <0>         0.0582
     20 C13         1.3521   -0.4563    0.7561 C.ar      1 <0>        -0.2132
     21 C14         0.1492    0.2218    0.7875 C.ar      1 <0>        -0.0836
     22 C15        -0.0145    1.3851    0.0499 C.ar      1 <0>         0.0030
     23 C16         1.0352    1.8716   -0.7204 C.ar      1 <0>         0.0584
     24 C17         2.2422    1.1901   -0.7528 C.ar      1 <0>        -0.1539
     25 O3          0.8962    3.0162   -1.4439 O.3       1 <0>        -0.1985
     26 C18        -0.4410    3.4684   -1.6832 C.3       1 <0>        -0.0529
     27 C19        -1.2169    3.3958   -0.3612 C.3       1 <0>        -0.0530
     28 O4         -1.2109    2.0354    0.0867 O.3       1 <0>        -0.2003
     29 H2         -3.5800   -8.2495    1.4208 H         1 <0>         0.1065
     30 H3         -2.0293   -8.6493    2.1976 H         1 <0>         0.0683
     31 H4         -2.5435   -6.9508    2.0591 H         1 <0>         0.0664
     32 H5         -0.3788   -7.5447   -1.8132 H         1 <0>         0.1421
     33 H6          1.9760   -6.8283   -1.7912 H         1 <0>         0.1347
     34 H7          1.8532   -6.5291    2.4617 H         1 <0>         0.1305
     35 H8         -0.5052   -7.2342    2.4475 H         1 <0>         0.1331
     36 H9          4.0200   -6.6418   -0.4977 H         1 <0>         0.1189
     37 H10         3.9674   -6.5127    1.2767 H         1 <0>         0.1179
     38 H11         4.4526   -0.1718   -0.1369 H         1 <0>         0.2754
     39 H12         1.4765   -1.3617    1.3317 H         1 <0>         0.1551
     40 H13        -0.6660   -0.1548    1.3874 H         1 <0>         0.1565
     41 H14         3.0581    1.5652   -1.3526 H         1 <0>         0.1585
     42 H15        -0.4222    4.4973   -2.0424 H         1 <0>         0.1283
     43 H16        -0.9180    2.8286   -2.4257 H         1 <0>         0.0990
     44 H17        -0.7362    4.0313    0.3826 H         1 <0>         0.0981
     45 H18        -2.2438    3.7257   -0.5190 H         1 <0>         0.1277
@<TRIPOS>BOND
     1    1    2 1
     2    1   29 1
     3    1   30 1
     4    1   31 1
     5    2    3 1
     6    3    8 ar
     7    3    4 ar
     8    4    5 ar
     9    4   32 1
    10    5    6 ar
    11    5   33 1
    12    6    7 ar
    13    6    9 1
    14    7    8 ar
    15    7   34 1
    16    8   35 1
    17    9   10 1
    18    9   36 1
    19    9   37 1
    20   10   11 1
    21   10   17 2
    22   11   13 1
    23   11   12 2
    24   13   15 2
    25   14   16 1
    26   15   18 1
    27   15   16 1
    28   16   17 1
    29   18   19 1
    30   18   38 1
    31   19   24 ar
    32   19   20 ar
    33   20   21 ar
    34   20   39 1
    35   21   22 ar
    36   21   40 1
    37   22   28 1
    38   22   23 ar
    39   23   24 ar
    40   23   25 1
    41   24   41 1
    42   25   26 1
    43   26   27 1
    44   26   42 1
    45   26   43 1
    46   27   28 1
    47   27   44 1
    48   27   45 1
@<TRIPOS>MOLECULE
ZINC02718696
   45    48     0     0     0
SMALL
USER_CHARGES

@<TRIPOS>ATOM
      1 C1         -2.5502   -7.9254    1.5708 C.3       1 <0>        -0.0626
      2 O1         -1.8919   -7.8292    0.3061 O.3       1 <0>        -0.2121
      3 C2         -0.5914   -7.4347    0.3159 C.ar      1 <0>         0.1003
      4 C3          0.1088   -7.3198   -0.8762 C.ar      1 <0>        -0.1537
      5 C4          1.4305   -6.9182   -0.8636 C.ar      1 <0>        -0.0741
      6 C5          2.0555   -6.6306    0.3358 C.ar      1 <0>        -0.0990
      7 C6          1.3614   -6.7497    1.5257 C.ar      1 <0>        -0.0722
      8 C7          0.0379   -7.1456    1.5181 C.ar      1 <0>        -0.2171
      9 C8          3.4974   -6.1927    0.3467 C.3       1 <0>        -0.0593
     10 C9          3.5671   -4.6911    0.2395 C.ar      1 <0>        -0.3115
     11 C10         4.8175   -4.0352    0.2241 C.ar      1 <0>         0.2175
     12 O2          5.8575   -4.6668    0.3052 O.3       1 <0>        -0.1691
     13 N1          4.8292   -2.6858    0.1267 N.ar      1 <0>        -0.2933
     14 H1          5.6506   -5.6430    0.3689 H         1 <0>         0.2758
     15 C11         3.6386   -2.0285    0.0479 C.ar      1 <0>         0.1860
     16 N2          2.5005   -2.7005    0.0627 N.ar      1 <0>        -0.2013
     17 N3          2.4665   -3.9815    0.1549 N.ar      1 <0>         0.0739
     18 N4          3.6208   -0.6627   -0.0471 N.pl3     1 <0>        -0.2464
     19 C12         2.4018    0.0255   -0.0152 C.ar      1 <0>         0.0661
     20 C13         1.3518   -0.4564    0.7553 C.ar      1 <0>        -0.1204
     21 C14         0.1489    0.2218    0.7863 C.ar      1 <0>        -0.1047
     22 C15        -0.0146    1.3850    0.0486 C.ar      1 <0>         0.0036
     23 C16         1.0353    1.8715   -0.7214 C.ar      1 <0>         0.0349
     24 C17         2.2423    1.1900   -0.7533 C.ar      1 <0>        -0.1563
     25 O3          0.8965    3.0161   -1.4449 O.3       1 <0>        -0.2060
     26 C18        -0.4405    3.4682   -1.6846 C.3       1 <0>        -0.0508
     27 C19        -1.2169    3.3957   -0.3628 C.3       1 <0>        -0.0520
     28 O4         -1.2110    2.0353    0.0850 O.3       1 <0>        -0.2040
     29 H2         -3.5800   -8.2495    1.4206 H         1 <0>         0.1072
     30 H3         -2.0293   -8.6493    2.1975 H         1 <0>         0.0659
     31 H4         -2.5435   -6.9508    2.0590 H         1 <0>         0.0702
     32 H5         -0.3787   -7.5447   -1.8133 H         1 <0>         0.1439
     33 H6          1.9760   -6.8282   -1.7913 H         1 <0>         0.1323
     34 H7          1.8531   -6.5292    2.4616 H         1 <0>         0.1277
     35 H8         -0.5052   -7.2342    2.4473 H         1 <0>         0.1346
     36 H9          4.0200   -6.6418   -0.4978 H         1 <0>         0.0888
     37 H10         3.9673   -6.5127    1.2766 H         1 <0>         0.0877
     38 H11         4.4527   -0.1718   -0.1367 H         1 <0>         0.2572
     39 H12         1.4760   -1.3617    1.3309 H         1 <0>         0.1667
     40 H13        -0.6665   -0.1549    1.3860 H         1 <0>         0.1499
     41 H14         3.0584    1.5651   -1.3529 H         1 <0>         0.1463
     42 H15        -0.4217    4.4971   -2.0438 H         1 <0>         0.1202
     43 H16        -0.9173    2.8284   -2.4272 H         1 <0>         0.0958
     44 H17        -0.7364    4.0312    0.3810 H         1 <0>         0.0928
     45 H18        -2.2437    3.7256   -0.5210 H         1 <0>         0.1206
@<TRIPOS>BOND
     1    1    2 1
     2    1   29 1
     3    1   30 1
     4    1   31 1
     5    2    3 1
     6    3    8 ar
     7    3    4 ar
     8    4    5 ar
     9    4   32 1
    10    5    6 ar
    11    5   33 1
    12    6    7 ar
    13    6    9 1
    14    7    8 ar
    15    7   34 1
    16    8   35 1
    17    9   10 1
    18    9   36 1
    19    9   37 1
    20   10   11 ar
    21   10   17 ar
    22   11   13 ar
    23   11   12 1
    24   12   14 1
    25   13   15 ar
    26   15   18 1
    27   15   16 ar
    28   16   17 ar
    29   18   19 1
    30   18   38 1
    31   19   24 ar
    32   19   20 ar
    33   20   21 ar
    34   20   39 1
    35   21   22 ar
    36   21   40 1
    37   22   28 1
    38   22   23 ar
    39   23   24 ar
    40   23   25 1
    41   24   41 1
    42   25   26 1
    43   26   27 1
    44   26   42 1
    45   26   43 1
    46   27   28 1
    47   27   44 1
    48   27   45 1
@<TRIPOS>MOLECULE
ZINC02718711
   41    43     0     0     0
SMALL
USER_CHARGES

@<TRIPOS>ATOM
      1 C1         -0.0499    2.4410  -11.5386 C.3       1 <0>        -0.0507
      2 O1         -0.2001    3.4819  -10.5374 O.3       1 <0>        -0.2698
      3 C2          0.3009    3.2291   -9.3122 C.2       1 <0>         0.3497
      4 O2          0.8483    2.1680   -9.0867 O.2       1 <0>        -0.3584
      5 C3          0.1848    4.2402   -8.2454 C.ar      1 <0>        -0.1268
      6 C4          0.7041    3.9796   -6.9736 C.ar      1 <0>        -0.0443
      7 C5          0.5944    4.9257   -5.9802 C.ar      1 <0>        -0.1324
      8 C6         -0.0322    6.1410   -6.2405 C.ar      1 <0>         0.0936
      9 C7         -0.5549    6.4016   -7.5039 C.ar      1 <0>        -0.1773
     10 C8         -0.4444    5.4619   -8.5033 C.ar      1 <0>        -0.0601
     11 N1         -0.1414    7.0963   -5.2328 N.pl3     1 <0>        -0.2778
     12 C9         -0.3060    6.7027   -3.9303 C.2       1 <0>         0.2085
     13 N2         -0.2970    7.6335   -2.9362 N.am      1 <0>        -0.3086
     14 H1         -0.1718    8.6033   -3.1454 H         1 <0>         0.2496
     15 C10        -0.4611    7.2174   -1.6594 C.2       1 <0>         0.3119
     16 O3         -0.4607    8.0135   -0.7356 O.2       1 <0>        -0.3389
     17 C11        -0.6335    5.8350   -1.4263 C.2       1 <0>        -0.1958
     18 N3         -0.6244    5.0048   -2.4422 N.2       1 <0>         0.0441
     19 N4         -0.4718    5.4226   -3.6476 N.2       1 <0>        -0.1975
     20 C12        -0.8199    5.3178   -0.0231 C.3       1 <0>        -0.0442
     21 C13        -0.9802    3.8198   -0.0571 C.ar      1 <0>        -0.0679
     22 C14         0.1314    3.0034    0.0371 C.ar      1 <0>        -0.1125
     23 C15        -0.0156    1.6293    0.0059 C.ar      1 <0>        -0.1263
     24 C16        -1.2742    1.0715   -0.1194 C.ar      1 <0>        -0.1261
     25 C17        -2.3853    1.8879   -0.2190 C.ar      1 <0>        -0.1256
     26 C18        -2.2388    3.2620   -0.1820 C.ar      1 <0>        -0.1115
     27 H2          1.0093    2.2347  -11.6921 H         1 <0>         0.0829
     28 H3         -0.5510    1.5347  -11.1985 H         1 <0>         0.0843
     29 H4         -0.4953    2.7722  -12.4767 H         1 <0>         0.1026
     30 H5          1.1910    3.0371   -6.7711 H         1 <0>         0.1640
     31 H6          0.9952    4.7251   -4.9976 H         1 <0>         0.1717
     32 H7         -1.0444    7.3439   -7.7012 H         1 <0>         0.1347
     33 H8         -0.8466    5.6664   -9.4845 H         1 <0>         0.1527
     34 H9         -0.1010    8.0402   -5.4528 H         1 <0>         0.2455
     35 H10        -1.7104    5.7687    0.4150 H         1 <0>         0.1107
     36 H11         0.0516    5.5765    0.5782 H         1 <0>         0.1100
     37 H12         1.1147    3.4392    0.1347 H         1 <0>         0.1269
     38 H13         0.8528    0.9915    0.0792 H         1 <0>         0.1273
     39 H14        -1.3890   -0.0021   -0.1441 H         1 <0>         0.1267
     40 H15        -3.3682    1.4521   -0.3214 H         1 <0>         0.1275
     41 H16        -3.1073    3.8998   -0.2553 H         1 <0>         0.1276
@<TRIPOS>BOND
     1    1    2 1
     2    1   27 1
     3    1   28 1
     4    1   29 1
     5    2    3 1
     6    3    4 2
     7    3    5 1
     8    5   10 ar
     9    5    6 ar
    10    6    7 ar
    11    6   30 1
    12    7    8 ar
    13    7   31 1
    14    8    9 ar
    15    8   11 1
    16    9   10 ar
    17    9   32 1
    18   10   33 1
    19   11   12 1
    20   11   34 1
    21   12   19 2
    22   12   13 1
    23   13   14 1
    24   13   15 am
    25   15   16 2
    26   15   17 1
    27   17   18 2
    28   17   20 1
    29   18   19 1
    30   20   21 1
    31   20   35 1
    32   20   36 1
    33   21   26 ar
    34   21   22 ar
    35   22   23 ar
    36   22   37 1
    37   23   24 ar
    38   23   38 1
    39   24   25 ar
    40   24   39 1
    41   25   26 ar
    42   25   40 1
    43   26   41 1
@<TRIPOS>MOLECULE
ZINC02718711
   41    43     0     0     0
SMALL
USER_CHARGES

@<TRIPOS>ATOM
      1 C1         -0.1003    2.4465  -11.5432 C.3       1 <0>        -0.0506
      2 O1         -0.2449    3.4869  -10.5407 O.3       1 <0>        -0.2699
      3 C2          0.2616    3.2330   -9.3180 C.2       1 <0>         0.3510
      4 O2          0.8092    2.1713   -9.0958 O.2       1 <0>        -0.3628
      5 C3          0.1514    4.2436   -8.2501 C.ar      1 <0>        -0.1348
      6 C4          0.6764    3.9818   -6.9809 C.ar      1 <0>        -0.0445
      7 C5          0.5722    4.9274   -5.9865 C.ar      1 <0>        -0.1407
      8 C6         -0.0547    6.1434   -6.2431 C.ar      1 <0>         0.1012
      9 C7         -0.5831    6.4051   -7.5039 C.ar      1 <0>        -0.1811
     10 C8         -0.4781    5.4659   -8.5043 C.ar      1 <0>        -0.0592
     11 N1         -0.1584    7.0982   -5.2343 N.pl3     1 <0>        -0.2505
     12 C9         -0.3171    6.7039   -3.9313 C.ar      1 <0>         0.1830
     13 N2         -0.2970    7.6335   -2.9362 N.ar      1 <0>        -0.2901
     14 H1         -0.5937    7.5241    0.1262 H         1 <0>         0.2772
     15 C10        -0.4611    7.2174   -1.6594 C.ar      1 <0>         0.2183
     16 O3         -0.4602    8.0134   -0.7356 O.3       1 <0>        -0.1676
     17 C11        -0.6461    5.8365   -1.4274 C.ar      1 <0>        -0.3052
     18 N3         -0.6420    5.0068   -2.4438 N.ar      1 <0>         0.0750
     19 N4         -0.4887    5.4245   -3.6491 N.ar      1 <0>        -0.1989
     20 C12        -0.8397    5.3201   -0.0249 C.3       1 <0>        -0.0654
     21 C13        -1.0058    3.8228   -0.0594 C.ar      1 <0>        -0.0610
     22 C14         0.1023    3.0020    0.0390 C.ar      1 <0>        -0.1108
     23 C15        -0.0500    1.6285    0.0073 C.ar      1 <0>        -0.1235
     24 C16        -1.3103    1.0756   -0.1225 C.ar      1 <0>        -0.1223
     25 C17        -2.4178    1.8964   -0.2263 C.ar      1 <0>        -0.1229
     26 C18        -2.2661    3.2699   -0.1888 C.ar      1 <0>        -0.1097
     27 H2          0.9580    2.2395  -11.7018 H         1 <0>         0.0821
     28 H3         -0.6005    1.5404  -11.2013 H         1 <0>         0.0830
     29 H4         -0.5499    2.7786  -12.4790 H         1 <0>         0.1014
     30 H5          1.1635    3.0388   -6.7813 H         1 <0>         0.1603
     31 H6          0.9775    4.7259   -5.0059 H         1 <0>         0.1678
     32 H7         -1.0728    7.3479   -7.6983 H         1 <0>         0.1365
     33 H8         -0.8847    5.6713   -9.4835 H         1 <0>         0.1502
     34 H9         -0.1182    8.0422   -5.4540 H         1 <0>         0.2591
     35 H10        -1.7300    5.7746    0.4099 H         1 <0>         0.0913
     36 H11         0.0306    5.5755    0.5796 H         1 <0>         0.0902
     37 H12         1.0869    3.4339    0.1402 H         1 <0>         0.1268
     38 H13         0.8156    0.9873    0.0839 H         1 <0>         0.1300
     39 H14        -1.4293    0.0025   -0.1476 H         1 <0>         0.1294
     40 H15        -3.4021    1.4645   -0.3323 H         1 <0>         0.1302
     41 H16        -3.1318    3.9111   -0.2654 H         1 <0>         0.1275
@<TRIPOS>BOND
     1    1    2 1
     2    1   27 1
     3    1   28 1
     4    1   29 1
     5    2    3 1
     6    3    4 2
     7    3    5 1
     8    5   10 ar
     9    5    6 ar
    10    6    7 ar
    11    6   30 1
    12    7    8 ar
    13    7   31 1
    14    8    9 ar
    15    8   11 1
    16    9   10 ar
    17    9   32 1
    18   10   33 1
    19   11   12 1
    20   11   34 1
    21   12   19 ar
    22   12   13 ar
    23   13   15 ar
    24   14   16 1
    25   15   16 1
    26   15   17 ar
    27   17   20 1
    28   17   18 ar
    29   18   19 ar
    30   20   21 1
    31   20   35 1
    32   20   36 1
    33   21   26 ar
    34   21   22 ar
    35   22   23 ar
    36   22   37 1
    37   23   24 ar
    38   23   38 1
    39   24   25 ar
    40   24   39 1
    41   25   26 ar
    42   25   40 1
    43   26   41 1
@<TRIPOS>MOLECULE
ZINC02718711
   41    43     0     0     0
SMALL
USER_CHARGES

@<TRIPOS>ATOM
      1 C1         -0.1003    2.4465  -11.5432 C.3       1 <0>        -0.0506
      2 O1         -0.2449    3.4869  -10.5407 O.3       1 <0>        -0.2699
      3 C2          0.2616    3.2330   -9.3180 C.2       1 <0>         0.3510
      4 O2          0.8092    2.1713   -9.0958 O.2       1 <0>        -0.3628
      5 C3          0.1514    4.2436   -8.2501 C.ar      1 <0>        -0.1348
      6 C4          0.6764    3.9818   -6.9809 C.ar      1 <0>        -0.0445
      7 C5          0.5722    4.9274   -5.9865 C.ar      1 <0>        -0.1407
      8 C6         -0.0547    6.1434   -6.2431 C.ar      1 <0>         0.1012
      9 C7         -0.5831    6.4051   -7.5039 C.ar      1 <0>        -0.1811
     10 C8         -0.4781    5.4659   -8.5043 C.ar      1 <0>        -0.0592
     11 N1         -0.1584    7.0982   -5.2343 N.pl3     1 <0>        -0.2505
     12 C9         -0.3171    6.7039   -3.9313 C.ar      1 <0>         0.1830
     13 N2         -0.2970    7.6335   -2.9362 N.ar      1 <0>        -0.2901
     14 H1         -0.5937    7.5241    0.1262 H         1 <0>         0.2772
     15 C10        -0.4611    7.2174   -1.6594 C.ar      1 <0>         0.2183
     16 O3         -0.4602    8.0134   -0.7356 O.3       1 <0>        -0.1676
     17 C11        -0.6461    5.8365   -1.4274 C.ar      1 <0>        -0.3052
     18 N3         -0.6420    5.0068   -2.4438 N.ar      1 <0>         0.0750
     19 N4         -0.4887    5.4245   -3.6491 N.ar      1 <0>        -0.1989
     20 C12        -0.8397    5.3201   -0.0249 C.3       1 <0>        -0.0654
     21 C13        -1.0058    3.8228   -0.0594 C.ar      1 <0>        -0.0610
     22 C14         0.1023    3.0020    0.0390 C.ar      1 <0>        -0.1108
     23 C15        -0.0500    1.6285    0.0073 C.ar      1 <0>        -0.1235
     24 C16        -1.3103    1.0756   -0.1225 C.ar      1 <0>        -0.1223
     25 C17        -2.4178    1.8964   -0.2263 C.ar      1 <0>        -0.1229
     26 C18        -2.2661    3.2699   -0.1888 C.ar      1 <0>        -0.1097
     27 H2          0.9580    2.2395  -11.7018 H         1 <0>         0.0821
     28 H3         -0.6005    1.5404  -11.2013 H         1 <0>         0.0830
     29 H4         -0.5499    2.7786  -12.4790 H         1 <0>         0.1014
     30 H5          1.1635    3.0388   -6.7813 H         1 <0>         0.1603
     31 H6          0.9775    4.7259   -5.0059 H         1 <0>         0.1678
     32 H7         -1.0728    7.3479   -7.6983 H         1 <0>         0.1365
     33 H8         -0.8847    5.6713   -9.4835 H         1 <0>         0.1502
     34 H9         -0.1182    8.0422   -5.4540 H         1 <0>         0.2591
     35 H10        -1.7300    5.7746    0.4099 H         1 <0>         0.0913
     36 H11         0.0306    5.5755    0.5796 H         1 <0>         0.0902
     37 H12         1.0869    3.4339    0.1402 H         1 <0>         0.1268
     38 H13         0.8156    0.9873    0.0839 H         1 <0>         0.1300
     39 H14        -1.4293    0.0025   -0.1476 H         1 <0>         0.1294
     40 H15        -3.4021    1.4645   -0.3323 H         1 <0>         0.1302
     41 H16        -3.1318    3.9111   -0.2654 H         1 <0>         0.1275
@<TRIPOS>BOND
     1    1    2 1
     2    1   27 1
     3    1   28 1
     4    1   29 1
     5    2    3 1
     6    3    4 2
     7    3    5 1
     8    5   10 ar
     9    5    6 ar
    10    6    7 ar
    11    6   30 1
    12    7    8 ar
    13    7   31 1
    14    8    9 ar
    15    8   11 1
    16    9   10 ar
    17    9   32 1
    18   10   33 1
    19   11   12 1
    20   11   34 1
    21   12   19 ar
    22   12   13 ar
    23   13   15 ar
    24   14   16 1
    25   15   16 1
    26   15   17 ar
    27   17   20 1
    28   17   18 ar
    29   18   19 ar
    30   20   21 1
    31   20   35 1
    32   20   36 1
    33   21   26 ar
    34   21   22 ar
    35   22   23 ar
    36   22   37 1
    37   23   24 ar
    38   23   38 1
    39   24   25 ar
    40   24   39 1
    41   25   26 ar
    42   25   40 1
    43   26   41 1
@<TRIPOS>MOLECULE
ZINC02736849
   37    38     0     0     0
SMALL
USER_CHARGES

@<TRIPOS>ATOM
      1 C1         -1.4792    4.0293   -2.6346 C.3       1 <0>        -0.2378
      2 C2         -0.7932    3.4228   -1.4377 C.2       1 <0>         0.3240
      3 O1         -0.2796    4.1399   -0.6053 O.2       1 <0>        -0.3264
      4 N1         -0.7503    2.0836   -1.2923 N.am      1 <0>        -0.8301
      5 S1          0.0036    1.4173    0.0230 S.o2      1 <0>         2.7497
      6 O2         -0.1427    0.0088   -0.0955 O.2       1 <0>        -0.9164
      7 O3          1.2742    2.0454    0.1242 O.2       1 <0>        -0.8838
      8 C3         -0.9121    1.9006    1.4486 C.ar      1 <0>        -0.7826
      9 C4         -0.5852    3.0669    2.1158 C.ar      1 <0>         0.0118
     10 C5         -1.3046    3.4515    3.2303 C.ar      1 <0>        -0.1560
     11 C6         -2.3501    2.6596    3.6874 C.ar      1 <0>         0.1248
     12 C7         -2.6722    1.4858    3.0182 C.ar      1 <0>        -0.1945
     13 C8         -1.9525    1.1098    1.9011 C.ar      1 <0>        -0.0129
     14 N2         -3.0764    3.0428    4.8190 N.am      1 <0>        -0.3274
     15 C9         -3.2809    4.3496    5.0778 C.2       1 <0>         0.3489
     16 O4         -2.9172    5.1930    4.2778 O.2       1 <0>        -0.3614
     17 C10        -3.9177    4.7416    6.2782 C.2       1 <0>        -0.2618
     18 C11        -4.1235    6.0571    6.5387 C.2       1 <0>         0.0350
     19 C12        -4.7610    6.4494    7.7403 C.2       1 <0>        -0.2889
     20 C13        -5.0641    7.7277    8.1946 C.2       1 <0>        -0.1266
     21 C14        -5.6931    7.8239    9.4104 C.2       1 <0>        -0.1886
     22 C15        -5.9844    6.6889   10.0993 C.2       1 <0>        -0.3241
     23 S2         -5.3920    5.4318    9.0630 S.3       1 <0>         0.4031
     24 H1         -1.8770    3.2351   -3.2664 H         1 <0>         0.0821
     25 H2         -2.2949    4.6702   -2.2999 H         1 <0>         0.1176
     26 H3         -0.7620    4.6211   -3.2033 H         1 <0>         0.1194
     27 H4         -1.1611    1.5101   -1.9581 H         1 <0>         0.2520
     28 H5          0.2307    3.6799    1.7624 H         1 <0>         0.1730
     29 H6         -1.0516    4.3648    3.7483 H         1 <0>         0.1684
     30 H7         -3.4848    0.8680    3.3709 H         1 <0>         0.1343
     31 H8         -2.2026    0.1975    1.3801 H         1 <0>         0.1463
     32 H9         -3.4332    2.3682    5.4177 H         1 <0>         0.2365
     33 H10        -4.2402    3.9937    6.9875 H         1 <0>         0.1320
     34 H11        -3.8010    6.8049    5.8294 H         1 <0>         0.1700
     35 H12        -4.8160    8.6055    7.6165 H         1 <0>         0.1527
     36 H13        -5.9535    8.7906    9.8155 H         1 <0>         0.1473
     37 H14        -6.4712    6.5932   11.0586 H         1 <0>         0.1902
@<TRIPOS>BOND
     1    1    2 1
     2    1   24 1
     3    1   25 1
     4    1   26 1
     5    2    3 2
     6    2    4 am
     7    4    5 1
     8    4   27 1
     9    5    6 2
    10    5    7 2
    11    5    8 1
    12    8   13 ar
    13    8    9 ar
    14    9   10 ar
    15    9   28 1
    16   10   11 ar
    17   10   29 1
    18   11   12 ar
    19   11   14 1
    20   12   13 ar
    21   12   30 1
    22   13   31 1
    23   14   15 am
    24   14   32 1
    25   15   16 2
    26   15   17 1
    27   17   18 2
    28   17   33 1
    29   18   19 1
    30   18   34 1
    31   19   23 1
    32   19   20 2
    33   20   21 1
    34   20   35 1
    35   21   22 2
    36   21   36 1
    37   22   23 1
    38   22   37 1
@<TRIPOS>MOLECULE
ZINC02737585
   39    40     0     0     0
SMALL
USER_CHARGES

@<TRIPOS>ATOM
      1 C1          2.7916   -3.0587   -3.6805 C.3       1 <0>        -0.2385
      2 C2          2.5909   -2.6277   -2.2505 C.2       1 <0>         0.3252
      3 O1          3.4670   -2.0213   -1.6712 O.2       1 <0>        -0.3322
      4 N1          1.4377   -2.9161   -1.6153 N.am      1 <0>        -0.8297
      5 S1          1.2171   -2.4424   -0.0439 S.o2      1 <0>         2.7486
      6 O2          2.3793   -2.8441    0.6683 O.2       1 <0>        -0.8835
      7 O3         -0.0880   -2.8640    0.3280 O.2       1 <0>        -0.9109
      8 C3          1.2007   -0.6806   -0.0282 C.ar      1 <0>        -0.7817
      9 C4          0.0071   -0.0003   -0.1859 C.ar      1 <0>        -0.0129
     10 C5         -0.0092    1.3807   -0.1736 C.ar      1 <0>        -0.1587
     11 C6          1.1748    2.0861   -0.0032 C.ar      1 <0>         0.1234
     12 C7          2.3717    1.4000    0.1553 C.ar      1 <0>        -0.1926
     13 C8          2.3813    0.0189    0.1421 C.ar      1 <0>         0.0136
     14 N2          1.1618    3.4852    0.0092 N.am      1 <0>        -0.3354
     15 C9          0.1012    4.1448    0.5158 C.2       1 <0>         0.2984
     16 O4         -0.7986    3.5290    1.0471 O.2       1 <0>        -0.3278
     17 C10         0.0332    5.6473    0.4219 C.3       1 <0>        -0.1450
     18 C11        -1.2435    6.1332    1.0584 C.ar      1 <0>        -0.0660
     19 C12        -2.3877    6.2702    0.2949 C.ar      1 <0>        -0.1105
     20 C13        -3.5602    6.7108    0.8798 C.ar      1 <0>        -0.1248
     21 C14        -3.5856    7.0248    2.2258 C.ar      1 <0>        -0.1213
     22 C15        -2.4399    6.8932    2.9880 C.ar      1 <0>        -0.1237
     23 C16        -1.2689    6.4471    2.4043 C.ar      1 <0>        -0.1075
     24 H1          1.9037   -3.5863   -4.0290 H         1 <0>         0.0838
     25 H2          2.9610   -2.1810   -4.3042 H         1 <0>         0.1153
     26 H3          3.6554   -3.7207   -3.7426 H         1 <0>         0.1201
     27 H4          0.7370   -3.4011   -2.0786 H         1 <0>         0.2529
     28 H5         -0.9134   -0.5495   -0.3183 H         1 <0>         0.1500
     29 H6         -0.9411    1.9114   -0.3009 H         1 <0>         0.1651
     30 H7          3.2942    1.9457    0.2884 H         1 <0>         0.1375
     31 H8          3.3118   -0.5153    0.2653 H         1 <0>         0.1710
     32 H9          1.9161    3.9805   -0.3467 H         1 <0>         0.2347
     33 H10         0.8868    6.0828    0.9415 H         1 <0>         0.1084
     34 H11         0.0540    5.9472   -0.6258 H         1 <0>         0.1084
     35 H12        -2.3667    6.0291   -0.7576 H         1 <0>         0.1267
     36 H13        -4.4554    6.8133    0.2844 H         1 <0>         0.1300
     37 H14        -4.5007    7.3726    2.6820 H         1 <0>         0.1297
     38 H15        -2.4598    7.1385    4.0396 H         1 <0>         0.1310
     39 H16        -0.3738    6.3443    2.9998 H         1 <0>         0.1289
@<TRIPOS>BOND
     1    1    2 1
     2    1   24 1
     3    1   25 1
     4    1   26 1
     5    2    3 2
     6    2    4 am
     7    4    5 1
     8    4   27 1
     9    5    6 2
    10    5    7 2
    11    5    8 1
    12    8   13 ar
    13    8    9 ar
    14    9   10 ar
    15    9   28 1
    16   10   11 ar
    17   10   29 1
    18   11   12 ar
    19   11   14 1
    20   12   13 ar
    21   12   30 1
    22   13   31 1
    23   14   15 am
    24   14   32 1
    25   15   16 2
    26   15   17 1
    27   17   18 1
    28   17   33 1
    29   17   34 1
    30   18   23 ar
    31   18   19 ar
    32   19   20 ar
    33   19   35 1
    34   20   21 ar
    35   20   36 1
    36   21   22 ar
    37   21   37 1
    38   22   23 ar
    39   22   38 1
    40   23   39 1
@<TRIPOS>MOLECULE
ZINC02742899
   40    42     0     0     0
SMALL
USER_CHARGES

@<TRIPOS>ATOM
      1 C1         10.8594   -5.7392    6.2906 C.3       1 <0>        -0.1854
      2 C2         10.3254   -4.4958    5.6272 C.ar      1 <0>        -0.0223
      3 C3          8.9876   -4.4103    5.3005 C.ar      1 <0>        -0.0734
      4 C4          8.4948   -3.2582    4.6863 C.ar      1 <0>        -0.0778
      5 C5          9.3612   -2.2013    4.4017 C.ar      1 <0>        -0.1216
      6 C6         10.6954   -2.2975    4.7383 C.ar      1 <0>        -0.0751
      7 C7         11.1775   -3.4426    5.3476 C.ar      1 <0>        -0.0875
      8 N1         12.6115   -3.5410    5.7013 N.pl3     1 <0>         0.5434
      9 O1         13.2087   -2.5580    6.1019 O.2       1 <0>        -0.3468
     10 O2         13.1941   -4.6049    5.5917 O.3       1 <0>        -0.3467
     11 C8          7.0625   -3.1599    4.3330 C.2       1 <0>         0.3381
     12 O3          6.3114   -4.0838    4.5774 O.2       1 <0>        -0.3648
     13 N2          6.5897   -2.0459    3.7398 N.am      1 <0>        -0.2605
     14 N3          5.2325   -1.9527    3.4050 N.pl3     1 <0>        -0.2709
     15 C9          4.7430   -0.7994    2.7910 C.2       1 <0>         0.1077
     16 C10         5.5672    0.2144    2.5227 C.2       1 <0>        -0.3432
     17 C11         3.3085   -0.7010    2.4371 C.ar      1 <0>        -0.0415
     18 C12         2.4454   -1.7602    2.7170 C.ar      1 <0>        -0.1158
     19 C13         1.1095   -1.6675    2.3864 C.ar      1 <0>        -0.1089
     20 C14         0.6197   -0.5226    1.7753 C.ar      1 <0>         0.0128
     21 C15         1.4777    0.5394    1.4933 C.ar      1 <0>         0.0069
     22 C16         2.8178    0.4509    1.8229 C.ar      1 <0>        -0.0937
     23 O4          0.7579    1.5350    0.8976 O.3       1 <0>        -0.2053
     24 C17        -0.6208    1.2390    1.1884 C.3       1 <0>         0.1068
     25 O5         -0.6362   -0.1908    1.3556 O.3       1 <0>        -0.2047
     26 H1         11.2800   -6.4022    5.5346 H         1 <0>         0.1155
     27 H2         11.6351   -5.4650    7.0056 H         1 <0>         0.1050
     28 H3         10.0493   -6.2496    6.8114 H         1 <0>         0.0911
     29 H4          8.3234   -5.2333    5.5194 H         1 <0>         0.1753
     30 H5          8.9869   -1.3088    3.9223 H         1 <0>         0.1404
     31 H6         11.3659   -1.4789    4.5223 H         1 <0>         0.1638
     32 H7          7.1891   -1.3086    3.5447 H         1 <0>         0.2570
     33 H8          4.6331   -2.6900    3.6001 H         1 <0>         0.2761
     34 H9          6.6134    0.1426    2.7808 H         1 <0>         0.1041
     35 H10         5.1883    1.1071    2.0474 H         1 <0>         0.1346
     36 H11         2.8232   -2.6534    3.1923 H         1 <0>         0.1403
     37 H12         0.4427   -2.4886    2.6043 H         1 <0>         0.1487
     38 H13         3.4837    1.2728    1.6046 H         1 <0>         0.1540
     39 H14        -1.2597    1.5341    0.3559 H         1 <0>         0.1335
     40 H15        -0.9335    1.7354    2.1070 H         1 <0>         0.0908
@<TRIPOS>BOND
     1    1    2 1
     2    1   26 1
     3    1   27 1
     4    1   28 1
     5    2    7 ar
     6    2    3 ar
     7    3    4 ar
     8    3   29 1
     9    4    5 ar
    10    4   11 1
    11    5    6 ar
    12    5   30 1
    13    6    7 ar
    14    6   31 1
    15    7    8 1
    16    8    9 2
    17    8   10 1
    18   11   12 2
    19   11   13 am
    20   13   14 1
    21   13   32 1
    22   14   15 1
    23   14   33 1
    24   15   16 2
    25   15   17 1
    26   16   34 1
    27   16   35 1
    28   17   22 ar
    29   17   18 ar
    30   18   19 ar
    31   18   36 1
    32   19   20 ar
    33   19   37 1
    34   20   25 1
    35   20   21 ar
    36   21   22 ar
    37   21   23 1
    38   22   38 1
    39   23   24 1
    40   24   25 1
    41   24   39 1
    42   24   40 1
@<TRIPOS>MOLECULE
ZINC02745558
   42    44     0     0     0
SMALL
USER_CHARGES

@<TRIPOS>ATOM
      1 C1         -4.4319    5.7486    2.5627 C.3       1 <0>        -0.2148
      2 C2         -4.3326    5.1821    1.1449 C.3       1 <0>        -0.0091
      3 O1         -4.0687    3.7558    1.2109 O.3       1 <0>        -0.2631
      4 C3         -3.9520    3.0999    0.0386 C.2       1 <0>         0.3630
      5 O2         -4.0676    3.7042   -1.0103 O.2       1 <0>        -0.3479
      6 C4         -3.6854    1.6574    0.0285 C.2       1 <0>        -0.2255
      7 C5         -4.7223    0.7363    0.0280 C.2       1 <0>         0.0267
      8 C6         -4.3928   -0.5916    0.0188 C.2       1 <0>        -0.4134
      9 S1         -2.6106   -0.5539    0.0037 S.3       1 <0>         0.5320
     10 C7         -2.3762    1.1634    0.0196 C.2       1 <0>        -0.1114
     11 N1         -1.1906    1.8695    0.0179 N.am      1 <0>        -0.2613
     12 C8         -0.0144    1.2116    0.0087 C.2       1 <0>         0.3514
     13 O3          0.0021   -0.0041    0.0020 O.2       1 <0>        -0.3372
     14 C9          1.2532    1.9666    0.0007 C.ar      1 <0>        -0.1342
     15 C10         1.2362    3.3639    0.0025 C.ar      1 <0>        -0.0943
     16 C11         2.4208    4.0670    0.0010 C.ar      1 <0>        -0.1224
     17 C12         3.6343    3.3921   -0.0141 C.ar      1 <0>         0.0382
     18 C13         3.6581    1.9967   -0.0221 C.ar      1 <0>        -0.0056
     19 C14         2.4738    1.2862   -0.0147 C.ar      1 <0>        -0.0474
     20 O4          4.9594    1.5837   -0.0368 O.3       1 <0>        -0.2001
     21 C15         5.7220    2.7328   -0.4505 C.3       1 <0>         0.1061
     22 O5          4.9191    3.8488   -0.0233 O.3       1 <0>        -0.2017
     23 C16        -5.2828   -1.7544    0.0154 C.2       1 <0>         0.4026
     24 O6         -6.4899   -1.5970    0.0212 O.2       1 <0>        -0.3674
     25 N2         -4.7655   -2.9989    0.0060 N.am      1 <0>        -0.4257
     26 C17        -6.1616    1.1826    0.0377 C.3       1 <0>        -0.1785
     27 H1         -5.2434    5.2533    3.0958 H         1 <0>         0.0906
     28 H2         -3.4931    5.5768    3.0892 H         1 <0>         0.0843
     29 H3         -4.6300    6.8193    2.5131 H         1 <0>         0.0895
     30 H4         -3.5211    5.6774    0.6118 H         1 <0>         0.0818
     31 H5         -5.2714    5.3540    0.6184 H         1 <0>         0.0928
     32 H6         -1.2038    2.8394    0.0232 H         1 <0>         0.2520
     33 H7          0.2945    3.8925    0.0098 H         1 <0>         0.1361
     34 H8          2.4056    5.1469    0.0070 H         1 <0>         0.1519
     35 H9          2.4909    0.2064   -0.0203 H         1 <0>         0.1719
     36 H10         5.8444    2.7414   -1.5335 H         1 <0>         0.0942
     37 H11         6.6924    2.7471    0.0456 H         1 <0>         0.1370
     38 H12        -3.8037   -3.1243    0.0014 H         1 <0>         0.2165
     39 H13        -5.3551   -3.7692    0.0037 H         1 <0>         0.2345
     40 H14        -6.5137    1.2964   -0.9876 H         1 <0>         0.1034
     41 H15        -6.7697    0.4370    0.5500 H         1 <0>         0.1263
     42 H16        -6.2426    2.1371    0.5577 H         1 <0>         0.0784
@<TRIPOS>BOND
     1    1    2 1
     2    1   27 1
     3    1   28 1
     4    1   29 1
     5    2    3 1
     6    2   30 1
     7    2   31 1
     8    3    4 1
     9    4    5 2
    10    4    6 1
    11    6   10 2
    12    6    7 1
    13    7    8 2
    14    7   26 1
    15    8    9 1
    16    8   23 1
    17    9   10 1
    18   10   11 1
    19   11   12 am
    20   11   32 1
    21   12   13 2
    22   12   14 1
    23   14   19 ar
    24   14   15 ar
    25   15   16 ar
    26   15   33 1
    27   16   17 ar
    28   16   34 1
    29   17   22 1
    30   17   18 ar
    31   18   19 ar
    32   18   20 1
    33   19   35 1
    34   20   21 1
    35   21   22 1
    36   21   36 1
    37   21   37 1
    38   23   24 2
    39   23   25 am
    40   25   38 1
    41   25   39 1
    42   26   40 1
    43   26   41 1
    44   26   42 1
@<TRIPOS>MOLECULE
ZINC02746649
   38    39     0     0     0
SMALL
USER_CHARGES

@<TRIPOS>ATOM
      1 C1         -3.5174   -2.2258    2.5308 C.3       1 <0>        -0.2147
      2 C2         -3.0351   -1.9090    1.1138 C.3       1 <0>        -0.0092
      3 O1         -1.8037   -1.1426    1.1817 O.3       1 <0>        -0.2628
      4 C3         -1.2430   -0.7798    0.0102 C.2       1 <0>         0.3626
      5 O2         -1.7695   -1.0957   -1.0394 O.2       1 <0>        -0.3475
      6 C4          0.0021   -0.0041    0.0020 C.2       1 <0>        -0.2232
      7 C5         -0.0167    1.3827    0.0096 C.2       1 <0>         0.0268
      8 C6          1.1861    2.0347    0.0017 C.2       1 <0>        -0.4118
      9 S1          2.3599    0.6931   -0.0168 S.3       1 <0>         0.5296
     10 C7          1.2495   -0.6378   -0.0133 C.2       1 <0>        -0.1129
     11 N1          1.5273   -1.9896   -0.0225 N.am      1 <0>        -0.2610
     12 C8          2.8062   -2.4146   -0.0372 C.2       1 <0>         0.3498
     13 O3          3.7149   -1.6074   -0.0422 O.2       1 <0>        -0.3373
     14 C9          3.1037   -3.8621   -0.0471 C.ar      1 <0>        -0.1953
     15 C10         4.4282   -4.3168   -0.0682 C.ar      1 <0>        -0.0254
     16 C11         4.6527   -5.6819   -0.0720 C.ar      1 <0>        -0.1974
     17 C12         3.5722   -6.5460   -0.0655 C.ar      1 <0>        -0.0147
     18 N2          2.3346   -6.0890   -0.0507 N.ar      1 <0>        -0.1640
     19 C13         2.0695   -4.7991   -0.0414 C.ar      1 <0>        -0.0145
     20 C14         1.4449    3.4760    0.0065 C.2       1 <0>         0.4025
     21 O4          0.5149    4.2613    0.0192 O.2       1 <0>        -0.3666
     22 N3          2.7127    3.9331   -0.0031 N.am      1 <0>        -0.4257
     23 C15        -1.3168    2.1448    0.0200 C.3       1 <0>        -0.1806
     24 H1         -2.7564   -2.8064    3.0523 H         1 <0>         0.0847
     25 H2         -3.6975   -1.2957    3.0698 H         1 <0>         0.0899
     26 H3         -4.4418   -2.8011    2.4798 H         1 <0>         0.0901
     27 H4         -3.7961   -1.3284    0.5923 H         1 <0>         0.0926
     28 H5         -2.8549   -2.8391    0.5748 H         1 <0>         0.0835
     29 H6          0.8021   -2.6338   -0.0185 H         1 <0>         0.2521
     30 H7          5.2531   -3.6197   -0.0775 H         1 <0>         0.1652
     31 H8          5.6609   -6.0691   -0.0842 H         1 <0>         0.1493
     32 H9          3.7446   -7.6121   -0.0731 H         1 <0>         0.1677
     33 H10         1.0431   -4.4635   -0.0290 H         1 <0>         0.1566
     34 H11         3.4538    3.3073   -0.0132 H         1 <0>         0.2163
     35 H12         2.8841    4.8878    0.0002 H         1 <0>         0.2347
     36 H13        -1.6253    2.3229    1.0502 H         1 <0>         0.0991
     37 H14        -1.1826    3.0991   -0.4893 H         1 <0>         0.1277
     38 H15        -2.0828    1.5635   -0.4933 H         1 <0>         0.0839
@<TRIPOS>BOND
     1    1    2 1
     2    1   24 1
     3    1   25 1
     4    1   26 1
     5    2    3 1
     6    2   27 1
     7    2   28 1
     8    3    4 1
     9    4    5 2
    10    4    6 1
    11    6   10 2
    12    6    7 1
    13    7    8 2
    14    7   23 1
    15    8    9 1
    16    8   20 1
    17    9   10 1
    18   10   11 1
    19   11   12 am
    20   11   29 1
    21   12   13 2
    22   12   14 1
    23   14   19 ar
    24   14   15 ar
    25   15   16 ar
    26   15   30 1
    27   16   17 ar
    28   16   31 1
    29   17   18 ar
    30   17   32 1
    31   18   19 ar
    32   19   33 1
    33   20   21 2
    34   20   22 am
    35   22   34 1
    36   22   35 1
    37   23   36 1
    38   23   37 1
    39   23   38 1
@<TRIPOS>MOLECULE
ZINC02755015
   40    41     0     0     0
SMALL
USER_CHARGES

@<TRIPOS>ATOM
      1 C1         -9.7050   10.8259    0.7933 C.3       1 <0>        -0.1302
      2 C2         -9.1858    9.4992    0.3021 C.2       1 <0>        -0.2706
      3 C3         -7.9991    8.9158    0.5612 C.2       1 <0>        -0.1270
      4 C4         -7.7529    7.6321   -0.0461 C.2       1 <0>        -0.1606
      5 C5         -8.7578    7.1068   -0.8317 C.2       1 <0>        -0.3302
      6 S1         -9.9943    8.3167   -0.7564 S.3       1 <0>         0.3952
      7 C6         -6.4878    6.9108    0.1675 C.2       1 <0>         0.3583
      8 O1         -5.6198    7.3989    0.8660 O.2       1 <0>        -0.3741
      9 N1         -6.2911    5.7094   -0.4108 N.am      1 <0>        -0.2683
     10 N2         -5.0869    5.0228   -0.2075 N.pl3     1 <0>        -0.2691
     11 C7         -4.8833    3.7791   -0.8062 C.2       1 <0>         0.1056
     12 C8         -5.8353    3.2438   -1.5722 C.2       1 <0>        -0.3514
     13 C9         -3.6108    3.0536   -0.5913 C.ar      1 <0>        -0.0517
     14 C10        -3.4059    1.8099   -1.1895 C.ar      1 <0>        -0.0938
     15 C11        -2.2203    1.1368   -0.9882 C.ar      1 <0>        -0.1478
     16 C12        -1.2286    1.6963   -0.1903 C.ar      1 <0>         0.0527
     17 C13        -1.4323    2.9332    0.4112 C.ar      1 <0>        -0.1574
     18 C14        -2.6142    3.6127    0.2092 C.ar      1 <0>        -0.0994
     19 N3         -0.0292    1.0128    0.0118 N.pl3     1 <0>        -0.8131
     20 S2          1.4131    1.8174   -0.1101 S.o2      1 <0>         2.6799
     21 O2          1.3001    2.9038    0.7988 O.2       1 <0>        -0.9054
     22 O3          2.4038    0.8161    0.0773 O.2       1 <0>        -0.9039
     23 C15         1.4611    2.4323   -1.8160 C.3       1 <0>        -0.8229
     24 H1        -10.7067   10.9932    0.3975 H         1 <0>         0.0871
     25 H2         -9.7409   10.8212    1.8827 H         1 <0>         0.0965
     26 H3         -9.0429   11.6230    0.4551 H         1 <0>         0.0964
     27 H4         -7.2633    9.3911    1.1929 H         1 <0>         0.1723
     28 H5         -8.7702    6.1678   -1.3652 H         1 <0>         0.1835
     29 H6         -6.9833    5.3201   -0.9678 H         1 <0>         0.2530
     30 H7         -4.3947    5.4121    0.3495 H         1 <0>         0.2755
     31 H8         -6.7635    3.7730   -1.7290 H         1 <0>         0.1059
     32 H9         -5.6776    2.2811   -2.0357 H         1 <0>         0.1287
     33 H10        -4.1757    1.3752   -1.8099 H         1 <0>         0.1443
     34 H11        -2.0612    0.1740   -1.4510 H         1 <0>         0.1375
     35 H12        -0.6620    3.3638    1.0338 H         1 <0>         0.1854
     36 H13        -2.7704    4.5753    0.6733 H         1 <0>         0.1408
     37 H14        -0.0399    0.0654    0.2197 H         1 <0>         0.2566
     38 H15         0.6471    3.1406   -1.9700 H         1 <0>         0.1412
     39 H16         2.4143    2.9294   -1.9964 H         1 <0>         0.1436
     40 H17         1.3509    1.5964   -2.5068 H         1 <0>         0.1370
@<TRIPOS>BOND
     1    1    2 1
     2    1   24 1
     3    1   25 1
     4    1   26 1
     5    2    6 1
     6    2    3 2
     7    3    4 1
     8    3   27 1
     9    4    5 2
    10    4    7 1
    11    5    6 1
    12    5   28 1
    13    7    8 2
    14    7    9 am
    15    9   10 1
    16    9   29 1
    17   10   11 1
    18   10   30 1
    19   11   12 2
    20   11   13 1
    21   12   31 1
    22   12   32 1
    23   13   18 ar
    24   13   14 ar
    25   14   15 ar
    26   14   33 1
    27   15   16 ar
    28   15   34 1
    29   16   17 ar
    30   16   19 1
    31   17   18 ar
    32   17   35 1
    33   18   36 1
    34   19   20 1
    35   19   37 1
    36   20   21 2
    37   20   22 2
    38   20   23 1
    39   23   38 1
    40   23   39 1
    41   23   40 1
@<TRIPOS>MOLECULE
ZINC02757241
   40    42     0     0     0
SMALL
USER_CHARGES

@<TRIPOS>ATOM
      1 C1         12.4502   -3.5402    6.2385 C.3       1 <0>        -0.1971
      2 C2         11.0878   -3.4413    5.6020 C.ar      1 <0>         0.0141
      3 C3         10.5687   -2.2010    5.2748 C.ar      1 <0>        -0.1456
      4 C4          9.3247   -2.1039    4.6867 C.ar      1 <0>        -0.0648
      5 C5          8.5841   -3.2596    4.4329 C.ar      1 <0>        -0.1346
      6 C6          9.1132   -4.5073    4.7658 C.ar      1 <0>        -0.0037
      7 C7         10.3614   -4.5909    5.3479 C.ar      1 <0>        -0.1259
      8 N1         10.9242   -5.9134    5.7017 N.pl3     1 <0>         0.5506
      9 O1         10.2416   -6.9158    5.5885 O.2       1 <0>        -0.3440
     10 O2         12.0699   -5.9992    6.1061 O.3       1 <0>        -0.3587
     11 C8          7.2474   -3.1626    3.8085 C.2       1 <0>         0.3447
     12 O3          6.6069   -4.1710    3.5840 O.2       1 <0>        -0.3637
     13 N2          6.7392   -1.9561    3.4881 N.am      1 <0>        -0.2639
     14 N3          5.4727   -1.8642    2.8964 N.pl3     1 <0>        -0.2698
     15 C9          4.9466   -0.6153    2.5648 C.2       1 <0>         0.1092
     16 C10         5.6495    0.4913    2.8111 C.2       1 <0>        -0.3462
     17 C11         3.6079   -0.5181    1.9394 C.ar      1 <0>        -0.0419
     18 C12         2.8717   -1.6742    1.6812 C.ar      1 <0>        -0.1152
     19 C13         1.6250   -1.5824    1.0981 C.ar      1 <0>        -0.1088
     20 C14         1.0993   -0.3423    0.7667 C.ar      1 <0>         0.0128
     21 C15         1.8305    0.8167    1.0225 C.ar      1 <0>         0.0064
     22 C16         3.0808    0.7296    1.6069 C.ar      1 <0>        -0.0938
     23 O4          1.1005    1.8933    0.6076 O.3       1 <0>        -0.2056
     24 C17        -0.2499    1.4126    0.4724 C.3       1 <0>         0.1068
     25 O5         -0.0876    0.0099    0.1916 O.3       1 <0>        -0.2046
     26 H1         13.1949   -3.7528    5.4715 H         1 <0>         0.1123
     27 H2         12.6919   -2.5967    6.7279 H         1 <0>         0.0829
     28 H3         12.4492   -4.3425    6.9763 H         1 <0>         0.1314
     29 H4         11.1408   -1.3073    5.4761 H         1 <0>         0.1527
     30 H5          8.9228   -1.1356    4.4273 H         1 <0>         0.1359
     31 H6          8.5471   -5.4055    4.5680 H         1 <0>         0.1917
     32 H7          7.2504   -1.1515    3.6673 H         1 <0>         0.2549
     33 H8          4.9615   -2.6689    2.7173 H         1 <0>         0.2766
     34 H9          6.6258    0.4204    3.2673 H         1 <0>         0.1032
     35 H10         5.2422    1.4580    2.5544 H         1 <0>         0.1340
     36 H11         3.2779   -2.6415    1.9375 H         1 <0>         0.1411
     37 H12         1.0562   -2.4788    0.8994 H         1 <0>         0.1491
     38 H13         3.6486    1.6266    1.8053 H         1 <0>         0.1536
     39 H14        -0.7535    1.9130   -0.3548 H         1 <0>         0.1333
     40 H15        -0.8022    1.5559    1.4011 H         1 <0>         0.0907
@<TRIPOS>BOND
     1    1    2 1
     2    1   26 1
     3    1   27 1
     4    1   28 1
     5    2    7 ar
     6    2    3 ar
     7    3    4 ar
     8    3   29 1
     9    4    5 ar
    10    4   30 1
    11    5    6 ar
    12    5   11 1
    13    6    7 ar
    14    6   31 1
    15    7    8 1
    16    8    9 2
    17    8   10 1
    18   11   12 2
    19   11   13 am
    20   13   14 1
    21   13   32 1
    22   14   15 1
    23   14   33 1
    24   15   16 2
    25   15   17 1
    26   16   34 1
    27   16   35 1
    28   17   22 ar
    29   17   18 ar
    30   18   19 ar
    31   18   36 1
    32   19   20 ar
    33   19   37 1
    34   20   25 1
    35   20   21 ar
    36   21   22 ar
    37   21   23 1
    38   22   38 1
    39   23   24 1
    40   24   25 1
    41   24   39 1
    42   24   40 1
@<TRIPOS>MOLECULE
ZINC02762092
   37    39     0     0     0
SMALL
USER_CHARGES

@<TRIPOS>ATOM
      1 C1         11.2653   -6.1426    0.1379 C.3       1 <0>        -0.1756
      2 C2         10.2482   -5.0380    0.0095 C.ar      1 <0>        -0.0643
      3 C3         10.3367   -4.1382   -1.0377 C.ar      1 <0>        -0.1374
      4 C4          9.4052   -3.1279   -1.1633 C.ar      1 <0>        -0.1045
      5 C5          8.3798   -3.0086   -0.2265 C.ar      1 <0>        -0.0255
      6 C6          8.2954   -3.9181    0.8261 C.ar      1 <0>        -0.0374
      7 C7          9.2297   -4.9279    0.9387 C.ar      1 <0>        -0.1338
      8 C8          7.1859   -3.7998    1.8391 C.3       1 <0>        -0.1670
      9 C9          7.3789   -1.9214   -0.3529 C.2       1 <0>         0.0004
     10 C10         7.7825   -0.6348   -0.5783 C.2       1 <0>        -0.3738
     11 S1          6.2032    0.2010   -0.6448 S.3       1 <0>         0.4095
     12 C11         5.1784   -1.2353   -0.3585 C.2       1 <0>        -0.0697
     13 N1          6.0856   -2.1880   -0.2488 N.2       1 <0>        -0.2274
     14 N2          3.7954   -1.3258   -0.2789 N.am      1 <0>        -0.2680
     15 C12         3.0384   -0.2197   -0.4203 C.2       1 <0>         0.3477
     16 O1          3.5670    0.8579   -0.6177 O.2       1 <0>        -0.2510
     17 C13         1.5730   -0.3156   -0.3358 C.2       1 <0>        -0.0907
     18 C14         0.6639    0.7213   -0.4585 C.2       1 <0>        -0.1640
     19 C15        -0.5928    0.1315   -0.3051 C.2       1 <0>        -0.1000
     20 N3         -0.4137   -1.1499   -0.1089 N.2       1 <0>        -0.0587
     21 N4          0.8362   -1.4457   -0.1207 N.pl3     1 <0>        -0.0912
     22 H1          1.2125   -2.3632    0.0079 H         1 <0>         0.2994
     23 N5          0.9606    2.1510   -0.7015 N.pl3     1 <0>         0.5736
     24 O2          0.0505    2.9558   -0.7873 O.2       1 <0>        -0.3547
     25 O3          2.1150    2.5225   -0.8156 O.3       1 <0>        -0.2971
     26 H2         10.9188   -7.0207   -0.4071 H         1 <0>         0.0870
     27 H3         12.2171   -5.8101   -0.2762 H         1 <0>         0.0819
     28 H4         11.3955   -6.3961    1.1900 H         1 <0>         0.0818
     29 H5         11.1339   -4.2291   -1.7606 H         1 <0>         0.1314
     30 H6          9.4726   -2.4288   -1.9838 H         1 <0>         0.1326
     31 H7          9.1651   -5.6335    1.7538 H         1 <0>         0.1324
     32 H8          6.2951   -4.3025    1.4626 H         1 <0>         0.0935
     33 H9          7.4972   -4.2642    2.7748 H         1 <0>         0.0725
     34 H10         6.9631   -2.7470    2.0125 H         1 <0>         0.0870
     35 H11         8.7794   -0.2346   -0.6898 H         1 <0>         0.2019
     36 H12         3.3739   -2.1851   -0.1214 H         1 <0>         0.2395
     37 H13        -1.5438    0.6417   -0.3457 H         1 <0>         0.2197
@<TRIPOS>BOND
     1    1    2 1
     2    1   26 1
     3    1   27 1
     4    1   28 1
     5    2    7 ar
     6    2    3 ar
     7    3    4 ar
     8    3   29 1
     9    4    5 ar
    10    4   30 1
    11    5    6 ar
    12    5    9 1
    13    6    7 ar
    14    6    8 1
    15    7   31 1
    16    8   32 1
    17    8   33 1
    18    8   34 1
    19    9   13 1
    20    9   10 2
    21   10   11 1
    22   10   35 1
    23   11   12 1
    24   12   13 2
    25   12   14 1
    26   14   15 am
    27   14   36 1
    28   15   16 2
    29   15   17 1
    30   17   21 1
    31   17   18 2
    32   18   19 1
    33   18   23 1
    34   19   20 2
    35   19   37 1
    36   20   21 1
    37   21   22 1
    38   23   24 2
    39   23   25 1
@<TRIPOS>MOLECULE
ZINC02767278
   38    41     0     0     0
SMALL
USER_CHARGES

@<TRIPOS>ATOM
      1 C1         -3.7659   -0.8683    0.4337 C.3       1 <0>        -0.0613
      2 O1         -2.4726   -0.2780    0.2893 O.3       1 <0>        -0.2263
      3 C2         -2.4190    1.0786    0.2031 C.ar      1 <0>         0.0496
      4 C3         -3.5827    1.8212    0.2568 C.ar      1 <0>        -0.1561
      5 C4         -3.5218    3.2090    0.1686 C.ar      1 <0>        -0.0802
      6 C5         -4.5364    4.2800    0.1901 C.ar      1 <0>        -0.1150
      7 C6         -5.9225    4.2950    0.3056 C.ar      1 <0>        -0.0716
      8 C7         -6.5968    5.4979    0.2909 C.ar      1 <0>        -0.1529
      9 C8         -5.8960    6.6865    0.1611 C.ar      1 <0>        -0.0946
     10 C9         -4.5218    6.6827    0.0454 C.ar      1 <0>        -0.1256
     11 C10        -3.8248    5.4805    0.0582 C.ar      1 <0>         0.0641
     12 O2         -2.5082    5.1909   -0.0356 O.3       1 <0>        -0.0821
     13 C11        -2.2875    3.8582    0.0256 C.ar      1 <0>         0.0436
     14 C12        -1.1234    3.1023   -0.0219 C.ar      1 <0>        -0.0915
     15 C13        -1.1880    1.7214    0.0609 C.ar      1 <0>         0.0583
     16 N1         -0.0111    0.9658    0.0074 N.am      1 <0>        -0.3131
     17 C14         1.1225    1.4444    0.5573 C.2       1 <0>         0.3470
     18 O3          1.1428    2.5644    1.0316 O.2       1 <0>        -0.2706
     19 C15         2.3355    0.6121    0.5839 C.2       1 <0>        -0.0864
     20 C16         3.5704    0.9597    1.1040 C.2       1 <0>        -0.1713
     21 C17         4.3865   -0.1544    0.8955 C.2       1 <0>        -0.1019
     22 N2          3.6707   -1.0690    0.2923 N.2       1 <0>        -0.0665
     23 N3          2.4706   -0.6563    0.0950 N.pl3     1 <0>        -0.0925
     24 H1          1.7457   -1.1831   -0.3488 H         1 <0>         0.2984
     25 N4          3.9455    2.2392    1.7468 N.pl3     1 <0>         0.5746
     26 O4          5.0792    2.4036    2.1604 O.2       1 <0>        -0.3613
     27 O5          3.1204    3.1277    1.8621 O.3       1 <0>        -0.2964
     28 H2         -4.3835   -0.6048   -0.4249 H         1 <0>         0.0704
     29 H3         -3.6663   -1.9523    0.4906 H         1 <0>         0.1089
     30 H4         -4.2345   -0.4982    1.3456 H         1 <0>         0.0745
     31 H5         -4.5365    1.3266    0.3665 H         1 <0>         0.1443
     32 H6         -6.4683    3.3686    0.4068 H         1 <0>         0.1317
     33 H7         -7.6730    5.5137    0.3804 H         1 <0>         0.1353
     34 H8         -6.4312    7.6245    0.1501 H         1 <0>         0.1389
     35 H9         -3.9866    7.6153   -0.0556 H         1 <0>         0.1443
     36 H10        -0.1666    3.5919   -0.1274 H         1 <0>         0.1853
     37 H11        -0.0103    0.0995   -0.4290 H         1 <0>         0.2313
     38 H12         5.4248   -0.2440    1.1787 H         1 <0>         0.2170
@<TRIPOS>BOND
     1    1    2 1
     2    1   28 1
     3    1   29 1
     4    1   30 1
     5    2    3 1
     6    3   15 ar
     7    3    4 ar
     8    4    5 ar
     9    4   31 1
    10    5   13 ar
    11    5    6 1
    12    6   11 ar
    13    6    7 ar
    14    7    8 ar
    15    7   32 1
    16    8    9 ar
    17    8   33 1
    18    9   10 ar
    19    9   34 1
    20   10   11 ar
    21   10   35 1
    22   11   12 1
    23   12   13 1
    24   13   14 ar
    25   14   15 ar
    26   14   36 1
    27   15   16 1
    28   16   17 am
    29   16   37 1
    30   17   18 2
    31   17   19 1
    32   19   23 1
    33   19   20 2
    34   20   21 1
    35   20   25 1
    36   21   22 2
    37   21   38 1
    38   22   23 1
    39   23   24 1
    40   25   26 2
    41   25   27 1
@<TRIPOS>MOLECULE
ZINC02769180
   39    41     0     0     0
SMALL
USER_CHARGES

@<TRIPOS>ATOM
      1 C1          7.7147   -4.3756   -0.0952 C.3       1 <0>        -0.1723
      2 C2          7.5486   -2.8778   -0.0857 C.ar      1 <0>        -0.1068
      3 C3          8.6681   -2.0580   -0.0914 C.ar      1 <0>        -0.0774
      4 C4          8.5367   -0.6862   -0.0829 C.ar      1 <0>        -0.1490
      5 C5          7.2714   -0.1085   -0.0678 C.ar      1 <0>         0.0949
      6 C6          6.1401   -0.9405   -0.0615 C.ar      1 <0>        -0.1959
      7 C7          6.2860   -2.3273   -0.0699 C.ar      1 <0>        -0.0406
      8 C8          4.8054   -0.3112   -0.0455 C.2       1 <0>         0.2986
      9 O1          3.7849   -0.9770   -0.0390 O.2       1 <0>        -0.2444
     10 C9          4.7673    1.1630   -0.0372 C.2       1 <0>        -0.2241
     11 C10         5.9470    1.8463   -0.0505 C.2       1 <0>         0.0626
     12 O2          7.1312    1.2318   -0.0589 O.3       1 <0>        -0.1201
     13 C11         3.4817    1.8821   -0.0211 C.2       1 <0>        -0.1165
     14 N1          2.3661    1.2177   -0.0140 N.2       1 <0>         0.0613
     15 N2          1.1435    1.9016    0.0014 N.am      1 <0>        -0.3324
     16 C12        -0.0144    1.2119    0.0087 C.2       1 <0>         0.3607
     17 O3          0.0021   -0.0041    0.0020 O.2       1 <0>        -0.3005
     18 C13        -1.3044    1.9335    0.0187 C.ar      1 <0>        -0.0981
     19 C14        -1.3257    3.3286    0.0323 C.ar      1 <0>        -0.1480
     20 C15        -2.5367    4.0008    0.0359 C.ar      1 <0>         0.0770
     21 C16        -3.7275    3.2888    0.0381 C.ar      1 <0>        -0.1603
     22 C17        -3.7110    1.9016    0.0305 C.ar      1 <0>         0.0777
     23 C18        -2.5045    1.2214    0.0206 C.ar      1 <0>        -0.1014
     24 O4         -4.8804    1.2091    0.0322 O.3       1 <0>        -0.2839
     25 O5         -2.5585    5.3597    0.0429 O.3       1 <0>        -0.2874
     26 H1          7.7641   -4.7422    0.9301 H         1 <0>         0.0891
     27 H2          6.8656   -4.8320   -0.6038 H         1 <0>         0.0886
     28 H3          8.6346   -4.6358   -0.6188 H         1 <0>         0.0819
     29 H4          9.6534   -2.4999   -0.1031 H         1 <0>         0.1400
     30 H5          9.4163   -0.0596   -0.0883 H         1 <0>         0.1466
     31 H6          5.4148   -2.9655   -0.0647 H         1 <0>         0.1625
     32 H7          5.9221    2.9260   -0.0490 H         1 <0>         0.1841
     33 H8          3.4670    2.9620   -0.0151 H         1 <0>         0.1094
     34 H9          1.1303    2.8715    0.0067 H         1 <0>         0.2049
     35 H10        -0.3992    3.8836    0.0351 H         1 <0>         0.1336
     36 H11        -4.6700    3.8161    0.0455 H         1 <0>         0.1533
     37 H12        -2.4925    0.1415    0.0139 H         1 <0>         0.1719
     38 H13        -5.2144    1.0035    0.9161 H         1 <0>         0.2315
     39 H14        -2.5605    5.7484    0.9284 H         1 <0>         0.2290
@<TRIPOS>BOND
     1    1    2 1
     2    1   26 1
     3    1   27 1
     4    1   28 1
     5    2    7 ar
     6    2    3 ar
     7    3    4 ar
     8    3   29 1
     9    4    5 ar
    10    4   30 1
    11    5   12 1
    12    5    6 ar
    13    6    7 ar
    14    6    8 1
    15    7   31 1
    16    8    9 2
    17    8   10 1
    18   10   11 2
    19   10   13 1
    20   11   12 1
    21   11   32 1
    22   13   14 2
    23   13   33 1
    24   14   15 1
    25   15   16 am
    26   15   34 1
    27   16   17 2
    28   16   18 1
    29   18   23 ar
    30   18   19 ar
    31   19   20 ar
    32   19   35 1
    33   20   21 ar
    34   20   25 1
    35   21   22 ar
    36   21   36 1
    37   22   23 ar
    38   22   24 1
    39   23   37 1
    40   24   38 1
    41   25   39 1
@<TRIPOS>MOLECULE
ZINC02770016
   37    38     0     0     0
SMALL
USER_CHARGES

@<TRIPOS>ATOM
      1 C1         -5.4267    5.3861    6.9948 C.3       1 <0>        -0.1630
      2 C2         -4.3375    5.9284    6.1057 C.2       1 <0>        -0.0940
      3 C3         -3.3898    6.7960    6.6003 C.2       1 <0>        -0.1782
      4 C4         -2.4260    7.2708    5.7703 C.2       1 <0>        -0.3090
      5 S1         -2.8327    6.4797    4.2228 S.3       1 <0>         0.4007
      6 C5         -4.2626    5.5634    4.7736 C.2       1 <0>        -0.2503
      7 C6         -5.1350    4.6627    4.0104 C.2       1 <0>        -0.0490
      8 N1         -4.9029    4.4468    2.7499 N.2       1 <0>        -0.0072
      9 N2         -5.7355    3.5872    2.0215 N.pl3     1 <0>        -0.8068
     10 S2         -5.4398    3.3122    0.4155 S.o2      1 <0>         2.7821
     11 O1         -5.3793    4.5865   -0.2103 O.2       1 <0>        -0.8923
     12 O2         -6.3504    2.3028    0.0019 O.2       1 <0>        -0.9147
     13 C7         -3.8262    2.6148    0.2949 C.ar      1 <0>        -0.7740
     14 C8         -3.6616    1.2429    0.3498 C.ar      1 <0>        -0.0110
     15 C9         -2.3982    0.6931    0.2546 C.ar      1 <0>        -0.1908
     16 C10        -1.2924    1.5197    0.1041 C.ar      1 <0>         0.1201
     17 C11        -1.4605    2.8973    0.0555 C.ar      1 <0>        -0.1547
     18 C12        -2.7271    3.4406    0.1451 C.ar      1 <0>         0.0047
     19 N3         -0.0111    0.9658    0.0074 N.am      1 <0>        -0.3337
     20 C13         0.9243    1.5612   -0.7588 C.2       1 <0>         0.3006
     21 O3          0.6307    2.5233   -1.4364 O.2       1 <0>        -0.3431
     22 C14         2.3351    1.0316   -0.7735 C.3       1 <0>        -0.2390
     23 H1         -5.0884    4.4606    7.4607 H         1 <0>         0.0871
     24 H2         -5.6622    6.1173    7.7681 H         1 <0>         0.0861
     25 H3         -6.3175    5.1882    6.3986 H         1 <0>         0.0796
     26 H4         -3.4152    7.0989    7.6366 H         1 <0>         0.1451
     27 H5         -1.6183    7.9531    5.9906 H         1 <0>         0.1888
     28 H6         -5.9697    4.1794    4.4963 H         1 <0>         0.1338
     29 H7         -6.4852    3.1531    2.4579 H         1 <0>         0.2245
     30 H8         -4.5219    0.6007    0.4669 H         1 <0>         0.1478
     31 H9         -2.2704   -0.3784    0.2969 H         1 <0>         0.1342
     32 H10        -0.6020    3.5430   -0.0567 H         1 <0>         0.1658
     33 H11        -2.8590    4.5116    0.1025 H         1 <0>         0.1611
     34 H12         0.2028    0.1512    0.4885 H         1 <0>         0.2347
     35 H13         2.4331    0.2804   -1.5572 H         1 <0>         0.1089
     36 H14         3.0285    1.8502   -0.9661 H         1 <0>         0.1203
     37 H15         2.5641    0.5810    0.1923 H         1 <0>         0.0849
@<TRIPOS>BOND
     1    1    2 1
     2    1   23 1
     3    1   24 1
     4    1   25 1
     5    2    6 2
     6    2    3 1
     7    3    4 2
     8    3   26 1
     9    4    5 1
    10    4   27 1
    11    5    6 1
    12    6    7 1
    13    7    8 2
    14    7   28 1
    15    8    9 1
    16    9   10 1
    17    9   29 1
    18   10   11 2
    19   10   12 2
    20   10   13 1
    21   13   18 ar
    22   13   14 ar
    23   14   15 ar
    24   14   30 1
    25   15   16 ar
    26   15   31 1
    27   16   17 ar
    28   16   19 1
    29   17   18 ar
    30   17   32 1
    31   18   33 1
    32   19   20 am
    33   19   34 1
    34   20   21 2
    35   20   22 1
    36   22   35 1
    37   22   36 1
    38   22   37 1
@<TRIPOS>MOLECULE
ZINC02779975
   40    41     0     0     0
SMALL
USER_CHARGES

@<TRIPOS>ATOM
      1 C1         -2.3506    6.7525   12.2328 C.3       1 <0>        -0.2406
      2 C2         -2.8604    5.3956   11.8206 C.2       1 <0>         0.3251
      3 O1         -3.4661    5.2664   10.7779 O.2       1 <0>        -0.3313
      4 N1         -2.6432    4.3256   12.6108 N.am      1 <0>        -0.8301
      5 S1         -3.2034    2.8345   12.1578 S.o2      1 <0>         2.7487
      6 O2         -4.5647    3.0070   11.7887 O.2       1 <0>        -0.8835
      7 O3         -2.7982    1.9236   13.1704 O.2       1 <0>        -0.9110
      8 C3         -2.3385    2.3760   10.6927 C.ar      1 <0>        -0.7805
      9 C4         -1.1499    1.6752   10.7839 C.ar      1 <0>        -0.0150
     10 C5         -0.4698    1.3140    9.6375 C.ar      1 <0>        -0.1577
     11 C6         -0.9809    1.6553    8.3920 C.ar      1 <0>         0.1205
     12 C7         -2.1721    2.3642    8.3040 C.ar      1 <0>        -0.1907
     13 C8         -2.8501    2.7174    9.4542 C.ar      1 <0>         0.0118
     14 N2         -0.2948    1.2910    7.2291 N.am      1 <0>        -0.3274
     15 C9          0.3737    0.1217    7.1794 C.2       1 <0>         0.3513
     16 O4          0.4510   -0.5768    8.1713 O.2       1 <0>        -0.3439
     17 C10         1.0127   -0.3113    5.9188 C.ar      1 <0>        -0.0974
     18 C11         0.9255    0.4890    4.7781 C.ar      1 <0>        -0.1452
     19 C12         1.5227    0.0816    3.6031 C.ar      1 <0>        -0.0961
     20 C13         2.2081   -1.1184    3.5506 C.ar      1 <0>        -0.1967
     21 C14         2.3002   -1.9208    4.6795 C.ar      1 <0>         0.0895
     22 C15         1.7000   -1.5240    5.8629 C.ar      1 <0>        -0.0939
     23 O5          2.9750   -3.0992    4.6221 O.3       1 <0>        -0.2058
     24 C16         3.5644   -3.4488    3.3681 C.3       1 <0>        -0.0637
     25 H1         -1.3436    6.8966   11.8413 H         1 <0>         0.1094
     26 H2         -3.0092    7.5244   11.8346 H         1 <0>         0.1211
     27 H3         -2.3303    6.8179   13.3207 H         1 <0>         0.0906
     28 H4         -2.1587    4.4288   13.4448 H         1 <0>         0.2528
     29 H5         -0.7532    1.4098   11.7527 H         1 <0>         0.1501
     30 H6          0.4583    0.7663    9.7094 H         1 <0>         0.1713
     31 H7         -2.5697    2.6353    7.3372 H         1 <0>         0.1377
     32 H8         -3.7787    3.2648    9.3864 H         1 <0>         0.1710
     33 H9         -0.2999    1.8799    6.4583 H         1 <0>         0.2384
     34 H10         0.3904    1.4264    4.8154 H         1 <0>         0.1244
     35 H11         1.4545    0.7016    2.7214 H         1 <0>         0.1354
     36 H12         2.6730   -1.4325    2.6278 H         1 <0>         0.1394
     37 H13         1.7672   -2.1495    6.7407 H         1 <0>         0.1716
     38 H14         4.2854   -2.6839    3.0797 H         1 <0>         0.0684
     39 H15         2.7862   -3.5196    2.6081 H         1 <0>         0.0691
     40 H16         4.0709   -4.4095    3.4600 H         1 <0>         0.1131
@<TRIPOS>BOND
     1    1    2 1
     2    1   25 1
     3    1   26 1
     4    1   27 1
     5    2    3 2
     6    2    4 am
     7    4    5 1
     8    4   28 1
     9    5    6 2
    10    5    7 2
    11    5    8 1
    12    8   13 ar
    13    8    9 ar
    14    9   10 ar
    15    9   29 1
    16   10   11 ar
    17   10   30 1
    18   11   12 ar
    19   11   14 1
    20   12   13 ar
    21   12   31 1
    22   13   32 1
    23   14   15 am
    24   14   33 1
    25   15   16 2
    26   15   17 1
    27   17   22 ar
    28   17   18 ar
    29   18   19 ar
    30   18   34 1
    31   19   20 ar
    32   19   35 1
    33   20   21 ar
    34   20   36 1
    35   21   22 ar
    36   21   23 1
    37   22   37 1
    38   23   24 1
    39   24   38 1
    40   24   39 1
    41   24   40 1
@<TRIPOS>MOLECULE
ZINC02792937
   40    41     0     0     0
SMALL
USER_CHARGES

@<TRIPOS>ATOM
      1 C1         -0.7527    1.5927   -1.2315 C.3       1 <0>        -0.2449
      2 C2         -0.0127    1.0858    0.0080 C.3       1 <0>        -0.0177
      3 N1         -0.6984    1.5583    1.2133 N.am      1 <0>        -0.3002
      4 C3         -1.7120    0.7851    1.7901 C.ar      1 <0>         0.0541
      5 C4         -1.3999   -0.1629    2.7561 C.ar      1 <0>        -0.1118
      6 C5         -2.4032   -0.9206    3.3273 C.ar      1 <0>        -0.1286
      7 C6         -3.7163   -0.7438    2.9308 C.ar      1 <0>        -0.1167
      8 C7         -4.0296    0.1950    1.9653 C.ar      1 <0>        -0.1237
      9 C8         -3.0313    0.9598    1.3939 C.ar      1 <0>        -0.0613
     10 C9         -3.3735    1.9825    0.3413 C.3       1 <0>        -0.1762
     11 C10        -0.3530    2.7377    1.7666 C.2       1 <0>         0.3173
     12 O1         -0.9207    3.1288    2.7645 O.2       1 <0>        -0.3379
     13 C11         0.7387    3.5704    1.1454 C.3       1 <0>        -0.3012
     14 S1          0.9671    5.0837    2.1118 S.3       1 <0>         0.3146
     15 C12         2.2615    5.8436    1.1889 C.2       1 <0>         0.0121
     16 N2          2.7501    7.0494    1.5929 N.am      1 <0>        -0.2775
     17 H1          2.3733    7.4935    2.4058 H         1 <0>         0.2569
     18 C13         3.7415    7.6457    0.8984 C.2       1 <0>         0.3478
     19 O2          4.1853    8.7263    1.2535 O.2       1 <0>        -0.3773
     20 C14         4.2518    7.0054   -0.2350 C.2       1 <0>        -0.4098
     21 C15         3.7193    5.7782   -0.6050 C.2       1 <0>         0.2277
     22 N3          2.7408    5.2319    0.1254 N.2       1 <0>        -0.3162
     23 N4          4.2018    5.1210   -1.7190 N.pl3     1 <0>        -0.3831
     24 H2         -0.2425    1.2411   -2.1283 H         1 <0>         0.0836
     25 H3         -1.7753    1.2154   -1.2238 H         1 <0>         0.0958
     26 H4         -0.7675    2.6825   -1.2255 H         1 <0>         0.0790
     27 H5          0.0021   -0.0041    0.0020 H         1 <0>         0.1014
     28 H6          1.0099    1.4631    0.0003 H         1 <0>         0.0908
     29 H7         -0.3741   -0.3045    3.0630 H         1 <0>         0.1365
     30 H8         -2.1616   -1.6550    4.0814 H         1 <0>         0.1337
     31 H9         -4.4986   -1.3406    3.3760 H         1 <0>         0.1320
     32 H10        -5.0558    0.3302    1.6573 H         1 <0>         0.1345
     33 H11        -3.3306    1.5182   -0.6439 H         1 <0>         0.0843
     34 H12        -4.3787    2.3647    0.5193 H         1 <0>         0.0864
     35 H13        -2.6590    2.8043    0.3872 H         1 <0>         0.0893
     36 H14         1.6685    3.0018    1.1356 H         1 <0>         0.1393
     37 H15         0.4608    3.8301    0.1239 H         1 <0>         0.1397
     38 H16         5.0456    7.4570   -0.8115 H         1 <0>         0.1642
     39 H17         4.9143    5.5169   -2.2449 H         1 <0>         0.2376
     40 H18         3.8283    4.2635   -1.9759 H         1 <0>         0.2255
@<TRIPOS>BOND
     1    1    2 1
     2    1   24 1
     3    1   25 1
     4    1   26 1
     5    2    3 1
     6    2   27 1
     7    2   28 1
     8    3    4 1
     9    3   11 am
    10    4    9 ar
    11    4    5 ar
    12    5    6 ar
    13    5   29 1
    14    6    7 ar
    15    6   30 1
    16    7    8 ar
    17    7   31 1
    18    8    9 ar
    19    8   32 1
    20    9   10 1
    21   10   33 1
    22   10   34 1
    23   10   35 1
    24   11   12 2
    25   11   13 1
    26   13   14 1
    27   13   36 1
    28   13   37 1
    29   14   15 1
    30   15   22 2
    31   15   16 1
    32   16   17 1
    33   16   18 am
    34   18   19 2
    35   18   20 1
    36   20   21 2
    37   20   38 1
    38   21   22 1
    39   21   23 1
    40   23   39 1
    41   23   40 1
@<TRIPOS>MOLECULE
ZINC02792937
   40    41     0     0     0
SMALL
USER_CHARGES

@<TRIPOS>ATOM
      1 C1         -0.7527    1.5927   -1.2315 C.3       1 <0>        -0.2449
      2 C2         -0.0127    1.0858    0.0080 C.3       1 <0>        -0.0159
      3 N1         -0.6984    1.5583    1.2133 N.am      1 <0>        -0.3047
      4 C3         -1.7120    0.7851    1.7901 C.ar      1 <0>         0.0581
      5 C4         -1.3999   -0.1629    2.7561 C.ar      1 <0>        -0.1124
      6 C5         -2.4032   -0.9206    3.3273 C.ar      1 <0>        -0.1295
      7 C6         -3.7163   -0.7438    2.9308 C.ar      1 <0>        -0.1189
      8 C7         -4.0296    0.1950    1.9653 C.ar      1 <0>        -0.1245
      9 C8         -3.0313    0.9598    1.3939 C.ar      1 <0>        -0.0618
     10 C9         -3.3735    1.9825    0.3413 C.3       1 <0>        -0.1761
     11 C10        -0.3530    2.7377    1.7666 C.2       1 <0>         0.3187
     12 O1         -0.9207    3.1288    2.7645 O.2       1 <0>        -0.3369
     13 C11         0.7387    3.5704    1.1454 C.3       1 <0>        -0.3228
     14 S1          0.9671    5.0837    2.1118 S.3       1 <0>         0.3701
     15 C12         2.2615    5.8436    1.1889 C.ar      1 <0>        -0.0070
     16 N2          2.7419    7.0549    1.5860 N.ar      1 <0>        -0.2820
     17 H1          4.8970    9.0203    0.6154 H         1 <0>         0.2641
     18 C13         3.7331    7.6514    0.8914 C.ar      1 <0>         0.2598
     19 O2          4.1733    8.7344    1.2435 O.3       1 <0>        -0.1718
     20 C14         4.2565    7.0022   -0.2309 C.ar      1 <0>        -0.4852
     21 C15         3.7281    5.7723   -0.5976 C.ar      1 <0>         0.2605
     22 N3          2.7451    5.2290    0.1290 N.ar      1 <0>        -0.3493
     23 N4          4.2150    5.1121   -1.7079 N.pl3     1 <0>        -0.3861
     24 H2         -0.2425    1.2411   -2.1283 H         1 <0>         0.0805
     25 H3         -1.7753    1.2154   -1.2238 H         1 <0>         0.0941
     26 H4         -0.7675    2.6825   -1.2255 H         1 <0>         0.0807
     27 H5          0.0021   -0.0041    0.0020 H         1 <0>         0.0978
     28 H6          1.0099    1.4631    0.0003 H         1 <0>         0.0921
     29 H7         -0.3741   -0.3045    3.0630 H         1 <0>         0.1364
     30 H8         -2.1616   -1.6550    4.0814 H         1 <0>         0.1321
     31 H9         -4.4986   -1.3406    3.3760 H         1 <0>         0.1303
     32 H10        -5.0558    0.3302    1.6573 H         1 <0>         0.1331
     33 H11        -3.3306    1.5182   -0.6439 H         1 <0>         0.0828
     34 H12        -4.3787    2.3647    0.5193 H         1 <0>         0.0850
     35 H13        -2.6590    2.8043    0.3872 H         1 <0>         0.0918
     36 H14         1.6685    3.0018    1.1356 H         1 <0>         0.1334
     37 H15         0.4608    3.8301    0.1239 H         1 <0>         0.1335
     38 H16         5.0536    7.4516   -0.8046 H         1 <0>         0.1343
     39 H17         4.9308    5.5058   -2.2310 H         1 <0>         0.2307
     40 H18         3.8414    4.2547   -1.9650 H         1 <0>         0.2299
@<TRIPOS>BOND
     1    1    2 1
     2    1   24 1
     3    1   25 1
     4    1   26 1
     5    2    3 1
     6    2   27 1
     7    2   28 1
     8    3    4 1
     9    3   11 am
    10    4    9 ar
    11    4    5 ar
    12    5    6 ar
    13    5   29 1
    14    6    7 ar
    15    6   30 1
    16    7    8 ar
    17    7   31 1
    18    8    9 ar
    19    8   32 1
    20    9   10 1
    21   10   33 1
    22   10   34 1
    23   10   35 1
    24   11   12 2
    25   11   13 1
    26   13   14 1
    27   13   36 1
    28   13   37 1
    29   14   15 1
    30   15   22 ar
    31   15   16 ar
    32   16   18 ar
    33   17   19 1
    34   18   19 1
    35   18   20 ar
    36   20   38 1
    37   20   21 ar
    38   21   23 1
    39   21   22 ar
    40   23   39 1
    41   23   40 1
@<TRIPOS>MOLECULE
ZINC02792937
   40    41     0     0     0
SMALL
USER_CHARGES

@<TRIPOS>ATOM
      1 C1         -0.7527    1.5927   -1.2315 C.3       1 <0>        -0.2449
      2 C2         -0.0127    1.0858    0.0080 C.3       1 <0>        -0.0159
      3 N1         -0.6984    1.5583    1.2133 N.am      1 <0>        -0.3047
      4 C3         -1.7120    0.7851    1.7901 C.ar      1 <0>         0.0581
      5 C4         -1.3999   -0.1629    2.7561 C.ar      1 <0>        -0.1124
      6 C5         -2.4032   -0.9206    3.3273 C.ar      1 <0>        -0.1295
      7 C6         -3.7163   -0.7438    2.9308 C.ar      1 <0>        -0.1189
      8 C7         -4.0296    0.1950    1.9653 C.ar      1 <0>        -0.1245
      9 C8         -3.0313    0.9598    1.3939 C.ar      1 <0>        -0.0618
     10 C9         -3.3735    1.9825    0.3413 C.3       1 <0>        -0.1761
     11 C10        -0.3530    2.7377    1.7666 C.2       1 <0>         0.3187
     12 O1         -0.9207    3.1288    2.7645 O.2       1 <0>        -0.3369
     13 C11         0.7387    3.5704    1.1454 C.3       1 <0>        -0.3228
     14 S1          0.9671    5.0837    2.1118 S.3       1 <0>         0.3701
     15 C12         2.2615    5.8436    1.1889 C.ar      1 <0>        -0.0070
     16 N2          2.7419    7.0549    1.5860 N.ar      1 <0>        -0.2820
     17 H1          4.8970    9.0203    0.6154 H         1 <0>         0.2641
     18 C13         3.7331    7.6514    0.8914 C.ar      1 <0>         0.2598
     19 O2          4.1733    8.7344    1.2435 O.3       1 <0>        -0.1718
     20 C14         4.2565    7.0022   -0.2309 C.ar      1 <0>        -0.4852
     21 C15         3.7281    5.7723   -0.5976 C.ar      1 <0>         0.2605
     22 N3          2.7451    5.2290    0.1290 N.ar      1 <0>        -0.3493
     23 N4          4.2150    5.1121   -1.7079 N.pl3     1 <0>        -0.3861
     24 H2         -0.2425    1.2411   -2.1283 H         1 <0>         0.0805
     25 H3         -1.7753    1.2154   -1.2238 H         1 <0>         0.0941
     26 H4         -0.7675    2.6825   -1.2255 H         1 <0>         0.0807
     27 H5          0.0021   -0.0041    0.0020 H         1 <0>         0.0978
     28 H6          1.0099    1.4631    0.0003 H         1 <0>         0.0921
     29 H7         -0.3741   -0.3045    3.0630 H         1 <0>         0.1364
     30 H8         -2.1616   -1.6550    4.0814 H         1 <0>         0.1321
     31 H9         -4.4986   -1.3406    3.3760 H         1 <0>         0.1303
     32 H10        -5.0558    0.3302    1.6573 H         1 <0>         0.1331
     33 H11        -3.3306    1.5182   -0.6439 H         1 <0>         0.0828
     34 H12        -4.3787    2.3647    0.5193 H         1 <0>         0.0850
     35 H13        -2.6590    2.8043    0.3872 H         1 <0>         0.0918
     36 H14         1.6685    3.0018    1.1356 H         1 <0>         0.1334
     37 H15         0.4608    3.8301    0.1239 H         1 <0>         0.1335
     38 H16         5.0536    7.4516   -0.8046 H         1 <0>         0.1343
     39 H17         4.9308    5.5058   -2.2310 H         1 <0>         0.2307
     40 H18         3.8414    4.2547   -1.9650 H         1 <0>         0.2299
@<TRIPOS>BOND
     1    1    2 1
     2    1   24 1
     3    1   25 1
     4    1   26 1
     5    2    3 1
     6    2   27 1
     7    2   28 1
     8    3    4 1
     9    3   11 am
    10    4    9 ar
    11    4    5 ar
    12    5    6 ar
    13    5   29 1
    14    6    7 ar
    15    6   30 1
    16    7    8 ar
    17    7   31 1
    18    8    9 ar
    19    8   32 1
    20    9   10 1
    21   10   33 1
    22   10   34 1
    23   10   35 1
    24   11   12 2
    25   11   13 1
    26   13   14 1
    27   13   36 1
    28   13   37 1
    29   14   15 1
    30   15   22 ar
    31   15   16 ar
    32   16   18 ar
    33   17   19 1
    34   18   19 1
    35   18   20 ar
    36   20   38 1
    37   20   21 ar
    38   21   23 1
    39   21   22 ar
    40   23   39 1
    41   23   40 1
@<TRIPOS>MOLECULE
ZINC02795765
   38    40     0     0     0
SMALL
USER_CHARGES

@<TRIPOS>ATOM
      1 C1          6.1647    1.2671   -0.0505 C.3       1 <0>        -0.1596
      2 C2          4.7289    0.8095   -0.0388 C.2       1 <0>        -0.0707
      3 C3          4.4094   -0.4971   -0.0427 C.2       1 <0>        -0.3263
      4 S1          2.6288   -0.4838   -0.0180 S.3       1 <0>         0.5181
      5 C4          2.3525    1.2255   -0.0138 C.2       1 <0>        -0.1381
      6 C5          3.6380    1.7548   -0.0233 C.2       1 <0>        -0.2443
      7 C6          3.8742    3.2016   -0.0182 C.2       1 <0>         0.3630
      8 O1          3.9825    3.7969    1.0379 O.2       1 <0>        -0.3622
      9 N1          3.9712    3.8727   -1.1830 N.am      1 <0>        -0.4316
     10 N2          1.1435    1.9018    0.0014 N.am      1 <0>        -0.2726
     11 C7         -0.0144    1.2121    0.0087 C.2       1 <0>         0.3481
     12 O2          0.0021   -0.0041    0.0020 O.2       1 <0>        -0.2946
     13 C8         -1.2991    1.9308    0.0187 C.2       1 <0>        -0.2419
     14 C9         -1.3324    3.3148    0.0264 C.2       1 <0>         0.0038
     15 C10        -2.5920    3.9656    0.0359 C.ar      1 <0>        -0.1638
     16 C11        -2.6620    5.3670    0.0434 C.ar      1 <0>        -0.0616
     17 C12        -3.8780    5.9869    0.0525 C.ar      1 <0>        -0.1580
     18 C13        -5.0485    5.2407    0.0536 C.ar      1 <0>        -0.0644
     19 C14        -5.0032    3.8629    0.0464 C.ar      1 <0>        -0.1510
     20 C15        -3.7766    3.2075    0.0375 C.ar      1 <0>         0.1394
     21 O3         -3.7350    1.8580    0.0300 O.3       1 <0>        -0.1623
     22 C16        -2.5678    1.1931    0.0146 C.2       1 <0>         0.3605
     23 O4         -2.5624   -0.0236    0.0028 O.2       1 <0>        -0.2429
     24 C17         5.3353   -1.6860   -0.0573 C.3       1 <0>        -0.1232
     25 H1          6.5209    1.3722    0.9743 H         1 <0>         0.0962
     26 H2          6.7760    0.5321   -0.5741 H         1 <0>         0.0806
     27 H3          6.2357    2.2280   -0.5602 H         1 <0>         0.0799
     28 H4          3.8848    3.3983   -2.0247 H         1 <0>         0.2203
     29 H5          4.1275    4.8300   -1.1797 H         1 <0>         0.2247
     30 H6          1.1303    2.8717    0.0067 H         1 <0>         0.2412
     31 H7         -0.4168    3.8875    0.0255 H         1 <0>         0.1423
     32 H8         -1.7555    5.9541    0.0419 H         1 <0>         0.1408
     33 H9         -3.9298    7.0657    0.0590 H         1 <0>         0.1421
     34 H10        -6.0038    5.7444    0.0605 H         1 <0>         0.1449
     35 H11        -5.9203    3.2924    0.0480 H         1 <0>         0.1586
     36 H12         5.5678   -1.9780    0.9668 H         1 <0>         0.0911
     37 H13         4.8519   -2.5169   -0.5711 H         1 <0>         0.0856
     38 H14         6.2561   -1.4231   -0.5780 H         1 <0>         0.0881
@<TRIPOS>BOND
     1    1    2 1
     2    1   25 1
     3    1   26 1
     4    1   27 1
     5    2    6 1
     6    2    3 2
     7    3    4 1
     8    3   24 1
     9    4    5 1
    10    5    6 2
    11    5   10 1
    12    6    7 1
    13    7    8 2
    14    7    9 am
    15    9   28 1
    16    9   29 1
    17   10   11 am
    18   10   30 1
    19   11   12 2
    20   11   13 1
    21   13   22 1
    22   13   14 2
    23   14   15 1
    24   14   31 1
    25   15   20 ar
    26   15   16 ar
    27   16   17 ar
    28   16   32 1
    29   17   18 ar
    30   17   33 1
    31   18   19 ar
    32   18   34 1
    33   19   20 ar
    34   19   35 1
    35   20   21 1
    36   21   22 1
    37   22   23 2
    38   24   36 1
    39   24   37 1
    40   24   38 1
@<TRIPOS>MOLECULE
ZINC02800860
   40    41     0     0     0
SMALL
USER_CHARGES

@<TRIPOS>ATOM
      1 C1         -8.8964   -1.3792    0.4011 C.3       1 <0>        -0.0598
      2 N1         -8.6730   -2.6574   -0.2789 N.pl3     1 <0>        -0.0718
      3 C2         -7.5030   -3.0401   -0.8712 C.2       1 <0>        -0.1688
      4 C3         -7.7284   -4.3023   -1.3931 C.2       1 <0>        -0.1612
      5 C4         -9.0509   -4.6079   -1.0640 C.2       1 <0>        -0.1715
      6 N2         -9.5474   -3.5892   -0.4095 N.2       1 <0>        -0.0757
      7 C5         -6.2555   -2.2638   -0.9452 C.2       1 <0>         0.3793
      8 O1         -5.2474   -2.7740   -1.3958 O.2       1 <0>        -0.3361
      9 N3         -6.2296   -0.9872   -0.5137 N.am      1 <0>        -0.3406
     10 C6         -5.0821   -0.2116   -0.6957 C.ar      1 <0>         0.0635
     11 C7         -5.1992    1.1362   -1.0161 C.ar      1 <0>        -0.1570
     12 C8         -4.0687    1.9039   -1.1952 C.ar      1 <0>        -0.0907
     13 C9         -2.8060    1.3273   -1.0552 C.ar      1 <0>        -0.0548
     14 C10        -2.6913   -0.0269   -0.7392 C.ar      1 <0>        -0.1055
     15 C11        -3.8251   -0.7887   -0.5555 C.ar      1 <0>        -0.1190
     16 C12        -1.5898    2.1494   -1.2476 C.2       1 <0>         0.1032
     17 C13        -1.7008    3.4427   -1.5550 C.2       1 <0>        -0.3435
     18 N4         -0.3277    1.5715   -1.1072 N.pl3     1 <0>        -0.2833
     19 N5          0.8232    2.3481   -1.2949 N.am      1 <0>        -0.2546
     20 C14         2.0424    1.7886   -1.1648 C.2       1 <0>         0.4060
     21 O2          3.0405    2.4622   -1.3276 O.2       1 <0>        -0.4096
     22 O3          2.1544    0.4833   -0.8545 O.3       1 <0>        -0.2852
     23 C15         3.4984   -0.0519   -0.7305 C.3       1 <0>        -0.0320
     24 H1         -9.0446   -0.5942   -0.3405 H         1 <0>         0.0953
     25 H2         -9.7814   -1.4537    1.0331 H         1 <0>         0.1251
     26 H3         -8.0296   -1.1387    1.0166 H         1 <0>         0.0956
     27 H4         -7.0295   -4.9202   -1.9374 H         1 <0>         0.1786
     28 H5         -9.5727   -5.5209   -1.3100 H         1 <0>         0.1911
     29 H6         -7.0077   -0.6070   -0.0768 H         1 <0>         0.2343
     30 H7         -6.1768    1.5820   -1.1243 H         1 <0>         0.1318
     31 H8         -4.1602    2.9510   -1.4434 H         1 <0>         0.1438
     32 H9         -1.7151   -0.4767   -0.6347 H         1 <0>         0.1334
     33 H10        -3.7369   -1.8358   -0.3062 H         1 <0>         0.1672
     34 H11        -2.6778    3.8900   -1.6637 H         1 <0>         0.1294
     35 H12        -0.8137    4.0424   -1.6954 H         1 <0>         0.1113
     36 H13        -0.2470    0.6311   -0.8836 H         1 <0>         0.2683
     37 H14         0.7425    3.2885   -1.5185 H         1 <0>         0.2881
     38 H15         4.0270    0.0708   -1.6759 H         1 <0>         0.0861
     39 H16         4.0313    0.4829    0.0557 H         1 <0>         0.0854
     40 H17         3.4460   -1.1110   -0.4783 H         1 <0>         0.1041
@<TRIPOS>BOND
     1    1    2 1
     2    1   24 1
     3    1   25 1
     4    1   26 1
     5    2    6 1
     6    2    3 1
     7    3    4 2
     8    3    7 1
     9    4    5 1
    10    4   27 1
    11    5    6 2
    12    5   28 1
    13    7    8 2
    14    7    9 am
    15    9   10 1
    16    9   29 1
    17   10   15 ar
    18   10   11 ar
    19   11   12 ar
    20   11   30 1
    21   12   13 ar
    22   12   31 1
    23   13   14 ar
    24   13   16 1
    25   14   15 ar
    26   14   32 1
    27   15   33 1
    28   16   17 2
    29   16   18 1
    30   17   34 1
    31   17   35 1
    32   18   19 1
    33   18   36 1
    34   19   20 am
    35   19   37 1
    36   20   21 2
    37   20   22 1
    38   22   23 1
    39   23   38 1
    40   23   39 1
    41   23   40 1
@<TRIPOS>MOLECULE
ZINC02811392
   41    42     0     0     0
SMALL
USER_CHARGES

@<TRIPOS>ATOM
      1 C1         -7.2100    0.9682   -0.7416 C.3       1 <0>        -0.2143
      2 C2         -5.8858    1.7288   -0.8367 C.3       1 <0>        -0.1484
      3 C3         -4.8077    0.9754   -0.0551 C.3       1 <0>        -0.1868
      4 C4         -3.5034    1.7245   -0.1488 C.2       1 <0>         0.3027
      5 O1         -3.4422    2.7592   -0.7787 O.2       1 <0>        -0.3530
      6 N1         -2.4050    1.2448    0.4675 N.am      1 <0>        -0.3280
      7 C5         -1.1730    1.8871    0.3015 C.ar      1 <0>         0.0791
      8 C6         -1.1193    3.2714    0.1941 C.ar      1 <0>        -0.1371
      9 C7          0.0960    3.9059    0.0241 C.ar      1 <0>        -0.0954
     10 C8          1.2623    3.1672   -0.0340 C.ar      1 <0>        -0.1739
     11 C9          1.2159    1.7833    0.0781 C.ar      1 <0>         0.0714
     12 C10        -0.0035    1.1429    0.2490 C.ar      1 <0>        -0.1611
     13 N2          2.3966    1.0362    0.0184 N.am      1 <0>        -0.3179
     14 C11         2.3891   -0.1929   -0.5345 C.2       1 <0>         0.3407
     15 O2          1.3795   -0.6151   -1.0640 O.2       1 <0>        -0.3393
     16 C12         3.6084   -1.0276   -0.4972 C.ar      1 <0>        -0.0880
     17 C13         4.7711   -0.5436    0.1048 C.ar      1 <0>        -0.1147
     18 C14         5.9041   -1.3298    0.1409 C.ar      1 <0>        -0.0781
     19 C15         5.8931   -2.5910   -0.4281 C.ar      1 <0>        -0.0902
     20 C16         4.7456   -3.0747   -1.0310 C.ar      1 <0>        -0.0791
     21 C17         3.6040   -2.3010   -1.0689 C.ar      1 <0>        -0.0750
     22 N3          7.1143   -3.4266   -0.3911 N.pl3     1 <0>         0.5450
     23 O3          7.1075   -4.5374   -0.8908 O.2       1 <0>        -0.3474
     24 O4          8.1260   -3.0034    0.1390 O.3       1 <0>        -0.3502
     25 H1         -7.0868   -0.0298   -1.1622 H         1 <0>         0.0717
     26 H2         -7.5084    0.8876    0.3037 H         1 <0>         0.0702
     27 H3         -7.9781    1.5049   -1.2984 H         1 <0>         0.0802
     28 H4         -6.0090    2.7268   -0.4161 H         1 <0>         0.0967
     29 H5         -5.5874    1.8093   -1.8819 H         1 <0>         0.1000
     30 H6         -4.6845   -0.0226   -0.4757 H         1 <0>         0.1041
     31 H7         -5.1061    0.8949    0.9902 H         1 <0>         0.0994
     32 H8         -2.4685    0.4543    1.0260 H         1 <0>         0.2330
     33 H9         -2.0290    3.8516    0.2391 H         1 <0>         0.1667
     34 H10         0.1346    4.9816   -0.0633 H         1 <0>         0.1378
     35 H11         2.2108    3.6662   -0.1670 H         1 <0>         0.1290
     36 H12        -0.0422    0.0671    0.3364 H         1 <0>         0.1572
     37 H13         3.2210    1.4026    0.3748 H         1 <0>         0.2340
     38 H14         4.7824    0.4426    0.5450 H         1 <0>         0.1423
     39 H15         6.8029   -0.9584    0.6106 H         1 <0>         0.1696
     40 H16         4.7436   -4.0600   -1.4733 H         1 <0>         0.1726
     41 H17         2.7088   -2.6799   -1.5395 H         1 <0>         0.1744
@<TRIPOS>BOND
     1    1    2 1
     2    1   25 1
     3    1   26 1
     4    1   27 1
     5    2    3 1
     6    2   28 1
     7    2   29 1
     8    3    4 1
     9    3   30 1
    10    3   31 1
    11    4    5 2
    12    4    6 am
    13    6    7 1
    14    6   32 1
    15    7   12 ar
    16    7    8 ar
    17    8    9 ar
    18    8   33 1
    19    9   10 ar
    20    9   34 1
    21   10   11 ar
    22   10   35 1
    23   11   12 ar
    24   11   13 1
    25   12   36 1
    26   13   14 am
    27   13   37 1
    28   14   15 2
    29   14   16 1
    30   16   21 ar
    31   16   17 ar
    32   17   18 ar
    33   17   38 1
    34   18   19 ar
    35   18   39 1
    36   19   20 ar
    37   19   22 1
    38   20   21 ar
    39   20   40 1
    40   21   41 1
    41   22   23 2
    42   22   24 1
@<TRIPOS>MOLECULE
ZINC02812305
   41    42     0     0     0
SMALL
USER_CHARGES

@<TRIPOS>ATOM
      1 C1          5.5338   12.3441   -0.4047 C.3       1 <0>        -0.2077
      2 C2          5.1017   11.9173    0.9996 C.3       1 <0>        -0.1397
      3 C3          5.0154   13.1490    1.9031 C.3       1 <0>        -0.1927
      4 C4          3.7521   11.2505    0.9290 C.2       1 <0>         0.3059
      5 O1          2.8136   11.7147    1.5411 O.2       1 <0>        -0.3550
      6 N1          3.5881   10.1382    0.1857 N.am      1 <0>        -0.3263
      7 C5          2.3617    9.4647    0.1957 C.ar      1 <0>         0.0795
      8 C6          1.1753   10.1815    0.2922 C.ar      1 <0>        -0.1375
      9 C7         -0.0360    9.5175    0.3017 C.ar      1 <0>        -0.0960
     10 C8         -0.0722    8.1389    0.2149 C.ar      1 <0>        -0.1751
     11 C9          1.1104    7.4163    0.1181 C.ar      1 <0>         0.0720
     12 C10         2.3291    8.0802    0.1141 C.ar      1 <0>        -0.1599
     13 N2          1.0730    6.0211    0.0308 N.am      1 <0>        -0.3188
     14 C11         2.0008    5.3662   -0.6950 C.2       1 <0>         0.3480
     15 O2          2.8137    5.9910   -1.3482 O.2       1 <0>        -0.3439
     16 C12         2.0300    3.8884   -0.6968 C.ar      1 <0>        -0.1336
     17 C13         1.0979    3.1679    0.0523 C.ar      1 <0>        -0.0678
     18 C14         1.1309    1.7889    0.0466 C.ar      1 <0>        -0.1406
     19 C15         2.0855    1.1197   -0.6990 C.ar      1 <0>        -0.0489
     20 C16         3.0156    1.8277   -1.4389 C.ar      1 <0>        -0.1193
     21 C17         2.9898    3.2072   -1.4469 C.ar      1 <0>        -0.0122
     22 N3          4.0372    1.1036   -2.2282 N.pl3     1 <0>         0.5484
     23 O3          4.0582   -0.1142   -2.2258 O.2       1 <0>        -0.3526
     24 O4          4.8567    1.7256   -2.8802 O.3       1 <0>        -0.3441
     25 H1          4.8039   13.0434   -0.8126 H         1 <0>         0.0877
     26 H2          6.5100   12.8264   -0.3536 H         1 <0>         0.0856
     27 H3          5.5953   11.4666   -1.0483 H         1 <0>         0.0707
     28 H4          5.8316   11.2180    1.4075 H         1 <0>         0.1070
     29 H5          4.7076   12.8450    2.9035 H         1 <0>         0.0907
     30 H6          5.9915   13.6313    1.9541 H         1 <0>         0.0739
     31 H7          4.2855   13.8483    1.4952 H         1 <0>         0.0905
     32 H8          4.3202    9.8046   -0.3561 H         1 <0>         0.2379
     33 H9          1.2002   11.2592    0.3596 H         1 <0>         0.1670
     34 H10        -0.9567   10.0770    0.3768 H         1 <0>         0.1372
     35 H11        -1.0208    7.6226    0.2226 H         1 <0>         0.1279
     36 H12         3.2500    7.5205    0.0431 H         1 <0>         0.1581
     37 H13         0.3793    5.5246    0.4925 H         1 <0>         0.2328
     38 H14         0.3524    3.6890    0.6346 H         1 <0>         0.1380
     39 H15         0.4104    1.2303    0.6256 H         1 <0>         0.1522
     40 H16         2.1072    0.0399   -0.6997 H         1 <0>         0.1694
     41 H17         3.7139    3.7587   -2.0282 H         1 <0>         0.1910
@<TRIPOS>BOND
     1    1    2 1
     2    1   25 1
     3    1   26 1
     4    1   27 1
     5    2    3 1
     6    2    4 1
     7    2   28 1
     8    3   29 1
     9    3   30 1
    10    3   31 1
    11    4    5 2
    12    4    6 am
    13    6    7 1
    14    6   32 1
    15    7   12 ar
    16    7    8 ar
    17    8    9 ar
    18    8   33 1
    19    9   10 ar
    20    9   34 1
    21   10   11 ar
    22   10   35 1
    23   11   12 ar
    24   11   13 1
    25   12   36 1
    26   13   14 am
    27   13   37 1
    28   14   15 2
    29   14   16 1
    30   16   21 ar
    31   16   17 ar
    32   17   18 ar
    33   17   38 1
    34   18   19 ar
    35   18   39 1
    36   19   20 ar
    37   19   40 1
    38   20   21 ar
    39   20   22 1
    40   21   41 1
    41   22   23 2
    42   22   24 1
@<TRIPOS>MOLECULE
ZINC02815897
   51    54     0     0     0
SMALL
USER_CHARGES

@<TRIPOS>ATOM
      1 C1         -1.0148   -2.1806   -4.6726 C.3       1 <0>        -0.1844
      2 C2          0.2574   -1.4094   -4.4322 C.ar      1 <0>        -0.0164
      3 C3          0.8835   -0.7643   -5.4824 C.ar      1 <0>        -0.1512
      4 C4          2.0505   -0.0569   -5.2619 C.ar      1 <0>        -0.0198
      5 C5          2.5909    0.0062   -3.9911 C.ar      1 <0>        -0.7706
      6 C6          1.9674   -0.6429   -2.9419 C.ar      1 <0>        -0.0275
      7 C7          0.7981   -1.3467   -3.1615 C.ar      1 <0>        -0.1527
      8 S1          4.0783    0.9079   -3.7101 S.o2      1 <0>         2.7602
      9 O1          4.7606    0.9641   -4.9553 O.2       1 <0>        -0.9058
     10 O2          4.6710    0.3595   -2.5408 O.2       1 <0>        -0.8994
     11 N1          3.6456    2.4622   -3.3369 N.pl3     1 <0>        -0.7583
     12 N2          2.8396    2.7158   -2.2194 N.pl3     1 <0>        -0.2545
     13 C8          3.2664    3.6069   -1.2430 C.2       1 <0>         0.0593
     14 C9          4.4380    4.2597   -1.3042 C.2       1 <0>        -0.3084
     15 C10         4.6836    5.1806   -0.1173 C.3       1 <0>         0.1463
     16 C11         4.6372    4.3263    1.1563 C.3       1 <0>        -0.1839
     17 C12         3.3016    3.5821    1.2261 C.3       1 <0>        -0.1361
     18 C13         2.4510    3.9366   -0.0006 C.3       1 <0>         0.0215
     19 C14         2.1828    5.4473   -0.0032 C.3       1 <0>        -0.1445
     20 C15         3.5327    6.1940   -0.0642 C.3       1 <0>        -0.1406
     21 C16         1.1563    3.1654    0.0076 C.ar      1 <0>        -0.0756
     22 C17         1.1750    1.7832    0.0004 C.ar      1 <0>        -0.1412
     23 C18        -0.0126    1.0758    0.0080 C.ar      1 <0>        -0.1272
     24 C19        -1.2190    1.7506    0.0173 C.ar      1 <0>        -0.1283
     25 C20        -1.2377    3.1328    0.0299 C.ar      1 <0>        -0.1232
     26 C21        -0.0501    3.8402    0.0228 C.ar      1 <0>        -0.1233
     27 O3          5.9399    5.8489   -0.2473 O.3       1 <0>        -0.3393
     28 H1         -0.7719   -3.2132   -4.9230 H         1 <0>         0.0960
     29 H2         -1.6280   -2.1598   -3.7717 H         1 <0>         0.0864
     30 H3         -1.5647   -1.7265   -5.4969 H         1 <0>         0.0877
     31 H4          0.4611   -0.8133   -6.4751 H         1 <0>         0.1388
     32 H5          2.5398    0.4468   -6.0824 H         1 <0>         0.1507
     33 H6          2.3920   -0.5973   -1.9499 H         1 <0>         0.1498
     34 H7          0.3087   -1.8504   -2.3410 H         1 <0>         0.1363
     35 H8          3.9502    3.1970   -3.8920 H         1 <0>         0.2507
     36 H9          1.9834    2.2692   -2.1275 H         1 <0>         0.2597
     37 H10         5.1386    4.1431   -2.1178 H         1 <0>         0.1441
     38 H11         5.4543    3.6050    1.1396 H         1 <0>         0.0899
     39 H12         4.7395    4.9706    2.0296 H         1 <0>         0.0914
     40 H13         2.7707    3.8733    2.1325 H         1 <0>         0.0907
     41 H14         3.4850    2.5078    1.2425 H         1 <0>         0.0935
     42 H15         1.5671    5.7052   -0.8649 H         1 <0>         0.0916
     43 H16         1.6601    5.7248    0.9122 H         1 <0>         0.0897
     44 H17         3.6440    6.8237    0.8185 H         1 <0>         0.0917
     45 H18         3.5551    6.8159   -0.9591 H         1 <0>         0.0982
     46 H19         2.1175    1.2560   -0.0115 H         1 <0>         0.1428
     47 H20         0.0021   -0.0041    0.0020 H         1 <0>         0.1297
     48 H21        -2.1469    1.1980    0.0188 H         1 <0>         0.1305
     49 H22        -2.1802    3.6600    0.0414 H         1 <0>         0.1322
     50 H23        -0.0647    4.9201    0.0288 H         1 <0>         0.1389
     51 H24         6.6998    5.2526   -0.2932 H         1 <0>         0.2140
@<TRIPOS>BOND
     1    1    2 1
     2    1   28 1
     3    1   29 1
     4    1   30 1
     5    2    7 ar
     6    2    3 ar
     7    3    4 ar
     8    3   31 1
     9    4    5 ar
    10    4   32 1
    11    5    6 ar
    12    5    8 1
    13    6    7 ar
    14    6   33 1
    15    7   34 1
    16    8    9 2
    17    8   10 2
    18    8   11 1
    19   11   12 1
    20   11   35 1
    21   12   13 1
    22   12   36 1
    23   13   18 1
    24   13   14 2
    25   14   15 1
    26   14   37 1
    27   15   20 1
    28   15   16 1
    29   15   27 1
    30   16   17 1
    31   16   38 1
    32   16   39 1
    33   17   18 1
    34   17   40 1
    35   17   41 1
    36   18   19 1
    37   18   21 1
    38   19   20 1
    39   19   42 1
    40   19   43 1
    41   20   44 1
    42   20   45 1
    43   21   26 ar
    44   21   22 ar
    45   22   23 ar
    46   22   46 1
    47   23   24 ar
    48   23   47 1
    49   24   25 ar
    50   24   48 1
    51   25   26 ar
    52   25   49 1
    53   26   50 1
    54   27   51 1
@<TRIPOS>MOLECULE
ZINC02817772
   43    45     0     0     0
SMALL
USER_CHARGES

@<TRIPOS>ATOM
      1 C1        -10.3132    3.5471    5.3766 C.3       1 <0>        -0.0633
      2 O1         -9.4983    4.5877    4.8333 O.3       1 <0>        -0.2118
      3 C2         -8.9961    4.3906    3.5860 C.ar      1 <0>         0.1068
      4 C3         -8.1969    5.3599    2.9975 C.ar      1 <0>        -0.1671
      5 C4         -7.6872    5.1570    1.7297 C.ar      1 <0>        -0.0695
      6 C5         -7.9730    3.9889    1.0473 C.ar      1 <0>        -0.1616
      7 C6         -8.7739    3.0237    1.6293 C.ar      1 <0>        -0.0624
      8 C7         -9.2814    3.2194    2.8992 C.ar      1 <0>        -0.2291
      9 C8         -7.4158    3.7701   -0.3357 C.3       1 <0>         0.0380
     10 N1         -6.1136    3.1059   -0.2380 N.am      1 <0>        -0.3014
     11 C9         -4.9970    3.8564   -0.1401 C.2       1 <0>         0.3575
     12 O2         -5.0592    5.0712   -0.1315 O.2       1 <0>        -0.3343
     13 C10        -3.6969    3.1628   -0.0495 C.2       1 <0>        -0.2742
     14 C11        -2.5101    3.8639    0.0472 C.2       1 <0>         0.0917
     15 C12        -1.2334    3.1615   -0.0790 C.ar      1 <0>        -0.1066
     16 C13        -1.0389    2.2346   -1.1144 C.ar      1 <0>        -0.0349
     17 C14         0.1614    1.5718   -1.2264 C.ar      1 <0>        -0.1531
     18 C15         1.1875    1.8260   -0.3236 C.ar      1 <0>         0.0788
     19 C16         1.0051    2.7509    0.7059 C.ar      1 <0>         0.0313
     20 C17        -0.1963    3.4167    0.8313 C.ar      1 <0>        -0.1020
     21 O3          2.0125    2.9954    1.5861 O.3       1 <0>        -0.2726
     22 O4          2.3710    1.1729   -0.4438 O.3       1 <0>        -0.2756
     23 C18        -3.7217    1.6867   -0.0607 C.2       1 <0>         0.3464
     24 O5         -2.6919    1.0438    0.0150 O.2       1 <0>        -0.3185
     25 N2         -4.9179    1.0707   -0.1577 N.am      1 <0>        -0.3406
     26 C19        -6.0601    1.7667   -0.2423 C.2       1 <0>         0.4104
     27 O6         -7.1039    1.1500   -0.3278 O.2       1 <0>        -0.3735
     28 H1        -11.1792    3.3907    4.7335 H         1 <0>         0.0689
     29 H2         -9.7339    2.6257    5.4363 H         1 <0>         0.0694
     30 H3        -10.6480    3.8311    6.3742 H         1 <0>         0.1081
     31 H4         -7.9731    6.2723    3.5303 H         1 <0>         0.1450
     32 H5         -7.0647    5.9111    1.2713 H         1 <0>         0.1493
     33 H6         -8.9996    2.1143    1.0923 H         1 <0>         0.1494
     34 H7         -9.9032    2.4633    3.3552 H         1 <0>         0.1371
     35 H8         -7.2967    4.7313   -0.8357 H         1 <0>         0.1208
     36 H9         -8.1005    3.1448   -0.9086 H         1 <0>         0.1240
     37 H10        -2.5253    4.9305    0.2160 H         1 <0>         0.1652
     38 H11        -1.8325    2.0384   -1.8202 H         1 <0>         0.1394
     39 H12         0.3086    0.8551   -2.0208 H         1 <0>         0.1487
     40 H13        -0.3383    4.1324    1.6275 H         1 <0>         0.1463
     41 H14         2.6060    3.7095    1.3161 H         1 <0>         0.2208
     42 H15         3.0160    1.6272   -1.0030 H         1 <0>         0.2263
     43 H16        -4.9521    0.1013   -0.1668 H         1 <0>         0.2725
@<TRIPOS>BOND
     1    1    2 1
     2    1   28 1
     3    1   29 1
     4    1   30 1
     5    2    3 1
     6    3    8 ar
     7    3    4 ar
     8    4    5 ar
     9    4   31 1
    10    5    6 ar
    11    5   32 1
    12    6    7 ar
    13    6    9 1
    14    7    8 ar
    15    7   33 1
    16    8   34 1
    17    9   10 1
    18    9   35 1
    19    9   36 1
    20   10   26 am
    21   10   11 am
    22   11   12 2
    23   11   13 1
    24   13   14 2
    25   13   23 1
    26   14   15 1
    27   14   37 1
    28   15   20 ar
    29   15   16 ar
    30   16   17 ar
    31   16   38 1
    32   17   18 ar
    33   17   39 1
    34   18   19 ar
    35   18   22 1
    36   19   20 ar
    37   19   21 1
    38   20   40 1
    39   21   41 1
    40   22   42 1
    41   23   24 2
    42   23   25 am
    43   25   26 am
    44   25   43 1
    45   26   27 2
@<TRIPOS>MOLECULE
ZINC02831043
   41    42     0     0     0
SMALL
USER_CHARGES

@<TRIPOS>ATOM
      1 C1         -5.3052   -7.1813    0.8988 C.3       1 <0>        -0.1933
      2 C2         -6.4708   -6.6065    0.0914 C.3       1 <0>        -0.1384
      3 C3         -7.7935   -7.0777    0.6991 C.3       1 <0>        -0.2068
      4 C4         -6.4108   -5.1010    0.1246 C.2       1 <0>         0.3037
      5 O1         -5.5231   -4.5428    0.7341 O.2       1 <0>        -0.3418
      6 N1         -7.3435   -4.3750   -0.5229 N.am      1 <0>        -0.3308
      7 C5         -7.3470   -2.9800   -0.4103 C.ar      1 <0>         0.0566
      8 C6         -8.5517   -2.2868   -0.3973 C.ar      1 <0>        -0.1357
      9 C7         -8.5605   -0.9091   -0.2872 C.ar      1 <0>        -0.1181
     10 C8         -7.3732   -0.2123   -0.1894 C.ar      1 <0>        -0.1221
     11 C9         -6.1580   -0.8991   -0.2010 C.ar      1 <0>        -0.1184
     12 C10        -6.1490   -2.2893   -0.3170 C.ar      1 <0>        -0.0621
     13 C11        -4.8847   -0.1553   -0.0969 C.2       1 <0>         0.3526
     14 O2         -3.8276   -0.7555   -0.1073 O.2       1 <0>        -0.3372
     15 N2         -4.8958    1.1882    0.0095 N.am      1 <0>        -0.3186
     16 C12        -3.6917    1.9017   -0.0092 C.ar      1 <0>         0.0339
     17 C13        -2.5724    1.3616   -0.6278 C.ar      1 <0>        -0.0638
     18 C14        -1.3856    2.0682   -0.6451 C.ar      1 <0>        -0.1057
     19 C15        -1.3090    3.3105   -0.0425 C.ar      1 <0>        -0.0710
     20 C16        -2.4223    3.8552    0.5704 C.ar      1 <0>        -0.1544
     21 C17        -3.6139    3.1535    0.5916 C.ar      1 <0>         0.0934
     22 F1         -4.7006    3.6834    1.1945 F         1 <0>        -0.0975
     23 N3         -0.1921    1.4920   -1.3043 N.pl3     1 <0>         0.5510
     24 O3         -0.2570    0.3956   -1.8310 O.2       1 <0>        -0.3417
     25 O4          0.8535    2.1163   -1.3245 O.3       1 <0>        -0.3587
     26 H1         -5.3737   -6.8376    1.9309 H         1 <0>         0.0928
     27 H2         -5.3486   -8.2701    0.8748 H         1 <0>         0.0749
     28 H3         -4.3628   -6.8455    0.4659 H         1 <0>         0.0934
     29 H4         -6.4022   -6.9501   -0.9407 H         1 <0>         0.1058
     30 H5         -7.8369   -8.1665    0.6751 H         1 <0>         0.0864
     31 H6         -7.8620   -6.7340    1.7312 H         1 <0>         0.0894
     32 H7         -8.6239   -6.6682    0.1239 H         1 <0>         0.0670
     33 H8         -8.0124   -4.8193   -1.0670 H         1 <0>         0.2349
     34 H9         -9.4840   -2.8266   -0.4739 H         1 <0>         0.1344
     35 H10        -9.4997   -0.3760   -0.2780 H         1 <0>         0.1373
     36 H11        -7.3842    0.8643   -0.1042 H         1 <0>         0.1242
     37 H12        -5.2118   -2.8259   -0.3307 H         1 <0>         0.1932
     38 H13        -5.7382    1.6607    0.0990 H         1 <0>         0.2465
     39 H14        -2.6296    0.3898   -1.0956 H         1 <0>         0.2118
     40 H15        -0.3784    3.8585   -0.0543 H         1 <0>         0.1707
     41 H16        -2.3603    4.8275    1.0365 H         1 <0>         0.1622
@<TRIPOS>BOND
     1    1    2 1
     2    1   26 1
     3    1   27 1
     4    1   28 1
     5    2    3 1
     6    2    4 1
     7    2   29 1
     8    3   30 1
     9    3   31 1
    10    3   32 1
    11    4    5 2
    12    4    6 am
    13    6    7 1
    14    6   33 1
    15    7   12 ar
    16    7    8 ar
    17    8    9 ar
    18    8   34 1
    19    9   10 ar
    20    9   35 1
    21   10   11 ar
    22   10   36 1
    23   11   12 ar
    24   11   13 1
    25   12   37 1
    26   13   14 2
    27   13   15 am
    28   15   16 1
    29   15   38 1
    30   16   21 ar
    31   16   17 ar
    32   17   18 ar
    33   17   39 1
    34   18   19 ar
    35   18   23 1
    36   19   20 ar
    37   19   40 1
    38   20   21 ar
    39   20   41 1
    40   21   22 1
    41   23   24 2
    42   23   25 1
@<TRIPOS>MOLECULE
ZINC02838937
   43    45     0     0     0
SMALL
USER_CHARGES

@<TRIPOS>ATOM
      1 C1          9.7573   14.1882    0.7411 C.3       1 <0>        -0.2086
      2 C2          8.6409   13.1487    0.6227 C.3       1 <0>        -0.1616
      3 C3          9.2496   11.7450    0.6177 C.3       1 <0>        -0.1615
      4 C4          8.1332   10.7054    0.4992 C.3       1 <0>        -0.0169
      5 O1          8.7017    9.3944    0.4945 O.3       1 <0>        -0.2064
      6 C5          7.8409    8.3500    0.3946 C.ar      1 <0>         0.1317
      7 C6          8.3286    7.0484    0.3843 C.ar      1 <0>        -0.1721
      8 C7          7.4586    5.9859    0.2835 C.ar      1 <0>        -0.0244
      9 C8          6.0834    6.2176    0.1915 C.ar      1 <0>        -0.1804
     10 C9          5.5976    7.5280    0.1968 C.ar      1 <0>        -0.0608
     11 C10         6.4739    8.5847    0.3032 C.ar      1 <0>        -0.2328
     12 C11         5.1475    5.0820    0.0828 C.2       1 <0>         0.3566
     13 O2          5.5724    3.9428    0.0733 O.2       1 <0>        -0.3535
     14 N1          3.8217    5.3075   -0.0059 N.am      1 <0>        -0.3263
     15 C12         2.9306    4.2362    0.0026 C.ar      1 <0>         0.0851
     16 C13         3.2187    3.1025    0.7533 C.ar      1 <0>        -0.1192
     17 C14         2.3423    2.0332    0.7703 C.ar      1 <0>        -0.0387
     18 C15         1.1675    2.0916    0.0334 C.ar      1 <0>        -0.1578
     19 C16         0.8716    3.2409   -0.7299 C.ar      1 <0>        -0.1162
     20 C17         1.7532    4.3064   -0.7418 C.ar      1 <0>        -0.0984
     21 C18        -0.4305    2.9718   -1.3767 C.2       1 <0>         0.3597
     22 O3         -1.0235    3.7279   -2.1194 O.2       1 <0>        -0.3024
     23 N2         -0.8450    1.7459   -1.0088 N.am      1 <0>        -0.3559
     24 C19         0.0374    1.1662   -0.1756 C.2       1 <0>         0.3598
     25 O4         -0.0748    0.0621    0.3186 O.2       1 <0>        -0.3008
     26 H1          9.3237   15.1882    0.7447 H         1 <0>         0.0771
     27 H2         10.3068   14.0271    1.6686 H         1 <0>         0.0765
     28 H3         10.4367   14.0898   -0.1055 H         1 <0>         0.0766
     29 H4          8.0914   13.3097   -0.3048 H         1 <0>         0.0815
     30 H5          7.9615   13.2471    1.4693 H         1 <0>         0.0813
     31 H6          9.7991   11.5839    1.5451 H         1 <0>         0.0976
     32 H7          9.9290   11.6466   -0.2290 H         1 <0>         0.0978
     33 H8          7.5837   10.8665   -0.4283 H         1 <0>         0.0775
     34 H9          7.4538   10.8038    1.3458 H         1 <0>         0.0772
     35 H10         9.3915    6.8702    0.4552 H         1 <0>         0.1530
     36 H11         7.8383    4.9749    0.2760 H         1 <0>         0.1622
     37 H12         4.5359    7.7113    0.1217 H         1 <0>         0.1239
     38 H13         6.0990    9.5975    0.3115 H         1 <0>         0.1411
     39 H14         3.4878    6.2156   -0.0756 H         1 <0>         0.2382
     40 H15         4.1325    3.0567    1.3272 H         1 <0>         0.1724
     41 H16         2.5711    1.1550    1.3557 H         1 <0>         0.1550
     42 H17         1.5312    5.1882   -1.3245 H         1 <0>         0.1495
     43 H18        -1.6728    1.3352   -1.3037 H         1 <0>         0.2633
@<TRIPOS>BOND
     1    1    2 1
     2    1   26 1
     3    1   27 1
     4    1   28 1
     5    2    3 1
     6    2   29 1
     7    2   30 1
     8    3    4 1
     9    3   31 1
    10    3   32 1
    11    4    5 1
    12    4   33 1
    13    4   34 1
    14    5    6 1
    15    6   11 ar
    16    6    7 ar
    17    7    8 ar
    18    7   35 1
    19    8    9 ar
    20    8   36 1
    21    9   10 ar
    22    9   12 1
    23   10   11 ar
    24   10   37 1
    25   11   38 1
    26   12   13 2
    27   12   14 am
    28   14   15 1
    29   14   39 1
    30   15   20 ar
    31   15   16 ar
    32   16   17 ar
    33   16   40 1
    34   17   18 ar
    35   17   41 1
    36   18   24 1
    37   18   19 ar
    38   19   20 ar
    39   19   21 1
    40   20   42 1
    41   21   22 2
    42   21   23 am
    43   23   24 am
    44   23   43 1
    45   24   25 2
@<TRIPOS>MOLECULE
ZINC02841894
   43    44     0     0     0
SMALL
USER_CHARGES

@<TRIPOS>ATOM
      1 C1         -2.1844    0.1090    1.5173 C.3       1 <0>        -0.1703
      2 C2         -2.2424    1.3905    0.7264 C.ar      1 <0>        -0.0924
      3 C3         -3.4024    2.1402    0.7088 C.ar      1 <0>        -0.1064
      4 C4         -3.4561    3.3165   -0.0158 C.ar      1 <0>        -0.1143
      5 C5         -2.3495    3.7462   -0.7255 C.ar      1 <0>        -0.1123
      6 C6         -1.1853    3.0039   -0.7082 C.ar      1 <0>        -0.1164
      7 C7         -1.1296    1.8191    0.0149 C.ar      1 <0>         0.0255
      8 N1          0.0466    1.0626    0.0310 N.am      1 <0>        -0.2922
      9 C8          1.2448    1.6791    0.0013 C.2       1 <0>         0.3639
     10 O1          1.3038    2.8886   -0.1144 O.2       1 <0>        -0.3637
     11 C9          2.4817    0.8890    0.1087 C.ar      1 <0>        -0.2423
     12 C10         2.4308   -0.5070    0.1206 C.ar      1 <0>         0.0665
     13 C11         3.6308   -1.2128    0.2236 C.ar      1 <0>        -0.2084
     14 C12         4.8426   -0.4969    0.3114 C.ar      1 <0>        -0.0555
     15 C13         3.7336    1.5307    0.1950 C.ar      1 <0>         0.2895
     16 N2          3.7953    2.9075    0.1789 N.pl3     1 <0>        -0.3426
     17 S1          6.3648   -1.3746    0.4424 S.3       1 <0>         0.5274
     18 C14         7.5229    0.0142    0.5180 C.3       1 <0>        -0.3457
     19 C15         8.9304   -0.5112    0.6359 C.2       1 <0>        -0.1868
     20 C16         9.7906   -0.3023   -0.3298 C.2       1 <0>        -0.1494
     21 C17         3.6312   -2.6847    0.2409 C.2       1 <0>         0.3592
     22 O2          4.6815   -3.2915    0.3309 O.2       1 <0>        -0.3335
     23 N3          2.4679   -3.3599    0.1569 N.am      1 <0>        -0.4034
     24 H1         -1.8455    0.3227    2.5310 H         1 <0>         0.0945
     25 H2         -3.1765   -0.3410    1.5532 H         1 <0>         0.1005
     26 H3         -1.4892   -0.5815    1.0398 H         1 <0>         0.0512
     27 H4         -4.2682    1.8074    1.2620 H         1 <0>         0.1453
     28 H5         -4.3641    3.9012   -0.0274 H         1 <0>         0.1449
     29 H6         -2.3946    4.6657   -1.2903 H         1 <0>         0.1451
     30 H7         -0.3202    3.3422   -1.2590 H         1 <0>         0.1575
     31 H8          0.0001    0.0942    0.0595 H         1 <0>         0.2306
     32 H9          1.4868   -1.0272    0.0514 H         1 <0>         0.1659
     33 H10         3.0312    3.4307    0.4675 H         1 <0>         0.3038
     34 H11         4.6029    3.3533   -0.1211 H         1 <0>         0.2433
     35 H12         7.4331    0.6121   -0.3889 H         1 <0>         0.1039
     36 H13         7.2923    0.6329    1.3853 H         1 <0>         0.1109
     37 H14         9.2300   -1.0601    1.5165 H         1 <0>         0.1564
     38 H15         9.4911    0.2465   -1.2104 H         1 <0>         0.1163
     39 H16        10.7993   -0.6789   -0.2453 H         1 <0>         0.1461
     40 H17         1.6303   -2.8760    0.0851 H         1 <0>         0.2159
     41 H18         2.4681   -4.3298    0.1683 H         1 <0>         0.2611
     42 N4          4.9204    0.8663    0.3023 N.ar      1 <0>        -0.1984
     43 H19         5.8173    1.3612    0.3719 H         1 <0>         0.3090
@<TRIPOS>BOND
     1    1    2 1
     2    1   24 1
     3    1   25 1
     4    1   26 1
     5    2    7 ar
     6    2    3 ar
     7    3    4 ar
     8    3   27 1
     9    4    5 ar
    10    4   28 1
    11    5    6 ar
    12    5   29 1
    13    6    7 ar
    14    6   30 1
    15    7    8 1
    16    8    9 am
    17    8   31 1
    18    9   10 2
    19    9   11 1
    20   11   15 ar
    21   11   12 ar
    22   12   13 ar
    23   12   32 1
    24   13   14 ar
    25   13   21 1
    26   14   17 1
    27   14   42 ar
    28   15   16 1
    29   15   42 ar
    30   16   33 1
    31   16   34 1
    32   17   18 1
    33   18   19 1
    34   18   35 1
    35   18   36 1
    36   19   20 2
    37   19   37 1
    38   20   38 1
    39   20   39 1
    40   21   22 2
    41   21   23 am
    42   23   40 1
    43   23   41 1
    44   42   43 1
@<TRIPOS>MOLECULE
ZINC02842257
   45    47     0     0     0
SMALL
USER_CHARGES

@<TRIPOS>ATOM
      1 C1         -1.2113   -1.5162   -0.3061 C.3       1 <0>        -0.1836
      2 C2          0.0443   -0.6901   -0.1968 C.ar      1 <0>        -0.0214
      3 C3         -0.0417    0.6752    0.0016 C.ar      1 <0>        -0.1526
      4 C4          1.1101    1.4329    0.1024 C.ar      1 <0>        -0.0248
      5 C5          2.3479    0.8255    0.0029 C.ar      1 <0>        -0.7704
      6 C6          2.4339   -0.5400   -0.1942 C.ar      1 <0>        -0.0265
      7 C7          1.2821   -1.2978   -0.2945 C.ar      1 <0>        -0.1531
      8 S1          3.8160    1.7914    0.1307 S.o2      1 <0>         2.7806
      9 O1          3.4700    2.9620    0.8582 O.2       1 <0>        -0.9060
     10 O2          4.8471    0.9093    0.5526 O.2       1 <0>        -0.8864
     11 N1          4.2122    2.2850   -1.3996 N.pl3     1 <0>        -0.8259
     12 C8          3.7558    3.5287   -2.0464 C.3       1 <0>         0.0039
     13 C9          3.8509    3.2434   -3.5660 C.3       1 <0>        -0.1738
     14 C10         5.1383    2.3805   -3.6409 C.3       1 <0>        -0.1651
     15 C11         5.0824    1.5586   -2.3358 C.3       1 <0>         0.0289
     16 H1          4.6665    0.5718   -2.5389 H         1 <0>         0.1022
     17 C12         6.4651    1.4249   -1.7517 C.2       1 <0>         0.2825
     18 O3          6.7090    1.8892   -0.6580 O.2       1 <0>        -0.3129
     19 N2          7.4308    0.7893   -2.4445 N.am      1 <0>        -0.3282
     20 C13         8.7425    0.7606   -1.9527 C.ar      1 <0>         0.0579
     21 C14         9.5449   -0.3497   -2.1790 C.ar      1 <0>        -0.1491
     22 C15        10.8393   -0.3751   -1.6985 C.ar      1 <0>        -0.1368
     23 C16        11.3341    0.7035   -0.9801 C.ar      1 <0>         0.0531
     24 C17        10.5312    1.8109   -0.7492 C.ar      1 <0>        -0.1341
     25 C18         9.2385    1.8400   -1.2340 C.ar      1 <0>        -0.1121
     26 O4         12.6069    0.6755   -0.5025 O.3       1 <0>        -0.2931
     27 H2         -1.5224   -1.5681   -1.3495 H         1 <0>         0.0910
     28 H3         -1.0178   -2.5224    0.0658 H         1 <0>         0.0875
     29 H4         -2.0020   -1.0557    0.2862 H         1 <0>         0.0877
     30 H5         -1.0088    1.1506    0.0734 H         1 <0>         0.1362
     31 H6          1.0429    2.4996    0.2571 H         1 <0>         0.1482
     32 H7          3.4010   -1.0148   -0.2701 H         1 <0>         0.1474
     33 H8          1.3493   -2.3646   -0.4488 H         1 <0>         0.1357
     34 H9          2.7255    3.7466   -1.7651 H         1 <0>         0.0917
     35 H10         4.4077    4.3589   -1.7747 H         1 <0>         0.0985
     36 H11         2.9835    2.6820   -3.9132 H         1 <0>         0.0946
     37 H12         3.9665    4.1685   -4.1307 H         1 <0>         0.0999
     38 H13         5.1140    1.7266   -4.5126 H         1 <0>         0.0934
     39 H14         6.0259    3.0130   -3.6596 H         1 <0>         0.1048
     40 H15         7.2177    0.3517   -3.2835 H         1 <0>         0.2285
     41 H16         9.1582   -1.1915   -2.7341 H         1 <0>         0.1300
     42 H17        11.4651   -1.2367   -1.8786 H         1 <0>         0.1400
     43 H18        10.9173    2.6506   -0.1905 H         1 <0>         0.1441
     44 H19         8.6136    2.7024   -1.0545 H         1 <0>         0.1616
     45 H20        12.6855    0.3011    0.3856 H         1 <0>         0.2261
@<TRIPOS>BOND
     1    1    2 1
     2    1   27 1
     3    1   28 1
     4    1   29 1
     5    2    7 ar
     6    2    3 ar
     7    3    4 ar
     8    3   30 1
     9    4    5 ar
    10    4   31 1
    11    5    6 ar
    12    5    8 1
    13    6    7 ar
    14    6   32 1
    15    7   33 1
    16    8    9 2
    17    8   10 2
    18    8   11 1
    19   11   15 1
    20   11   12 1
    21   12   13 1
    22   12   34 1
    23   12   35 1
    24   13   14 1
    25   13   36 1
    26   13   37 1
    27   14   15 1
    28   14   38 1
    29   14   39 1
    30   15   16 1
    31   15   17 1
    32   17   18 2
    33   17   19 am
    34   19   20 1
    35   19   40 1
    36   20   25 ar
    37   20   21 ar
    38   21   22 ar
    39   21   41 1
    40   22   23 ar
    41   22   42 1
    42   23   24 ar
    43   23   26 1
    44   24   25 ar
    45   24   43 1
    46   25   44 1
    47   26   45 1
@<TRIPOS>MOLECULE
ZINC02849038
   42    45     0     0     0
SMALL
USER_CHARGES

@<TRIPOS>ATOM
      1 C1          0.0397   -2.7705   -0.0132 C.ar      1 <0>        -0.1171
      2 C2          0.5465   -2.0794    1.0719 C.ar      1 <0>        -0.1217
      3 C3          0.5291   -0.6983    1.0823 C.ar      1 <0>        -0.1247
      4 C4          0.0021   -0.0041    0.0020 C.ar      1 <0>         0.0212
      5 C5         -0.5112   -0.7005   -1.0835 C.ar      1 <0>        -0.1109
      6 C6         -0.4859   -2.0816   -1.0908 C.ar      1 <0>        -0.1178
      7 N1         -0.0169    1.3984    0.0097 N.pl3     1 <0>        -0.1641
      8 C7          1.0785    2.2185    0.0037 C.2       1 <0>         0.1346
      9 N2          0.6558    3.4586    0.0144 N.2       1 <0>        -0.1651
     10 N3         -0.7448    3.4403    0.0277 N.2       1 <0>        -0.1108
     11 C8         -1.1348    2.1888    0.0187 C.2       1 <0>        -0.1909
     12 S1         -2.8037    1.6234    0.0225 S.3       1 <0>         0.3093
     13 C9         -3.7841    3.1495    0.0349 C.3       1 <0>        -0.3108
     14 C10        -5.2510    2.8042    0.0390 C.2       1 <0>         0.3344
     15 O1         -5.6006    1.6429    0.0341 O.2       1 <0>        -0.3407
     16 N4         -6.1743    3.7860    0.0482 N.am      1 <0>        -0.2697
     17 C11        -7.6245    3.5753    0.0472 C.3       1 <0>        -0.0066
     18 C12        -8.2368    4.9854    0.0621 C.3       1 <0>        -0.1307
     19 C13        -7.0462    5.9176    0.0623 C.ar      1 <0>        -0.1250
     20 C14        -5.8889    5.1549    0.0541 C.ar      1 <0>         0.0549
     21 C15        -4.6515    5.8009    0.0530 C.ar      1 <0>        -0.1739
     22 C16        -4.5862    7.1781    0.0606 C.ar      1 <0>        -0.0915
     23 C17        -5.7464    7.9299    0.0688 C.ar      1 <0>        -0.1515
     24 C18        -6.9758    7.2972    0.0694 C.ar      1 <0>        -0.0843
     25 N5          2.4055    1.8083   -0.0112 N.pl3     1 <0>        -0.3965
     26 H1          0.0547   -3.8503   -0.0193 H         1 <0>         0.1363
     27 H2          0.9561   -2.6201    1.9123 H         1 <0>         0.1385
     28 H3          0.9254   -0.1591    1.9300 H         1 <0>         0.1446
     29 H4         -0.9262   -0.1630   -1.9233 H         1 <0>         0.1509
     30 H5         -0.8811   -2.6239   -1.9370 H         1 <0>         0.1407
     31 H6         -3.5445    3.7281    0.9271 H         1 <0>         0.1445
     32 H7         -3.5518    3.7378   -0.8529 H         1 <0>         0.1435
     33 H8         -7.9279    3.0388   -0.8518 H         1 <0>         0.1022
     34 H9         -7.9271    3.0242    0.9376 H         1 <0>         0.1024
     35 H10        -8.8359    5.1337    0.9606 H         1 <0>         0.1032
     36 H11        -8.8427    5.1428   -0.8302 H         1 <0>         0.1025
     37 H12        -3.7414    5.2194    0.0470 H         1 <0>         0.1501
     38 H13        -3.6253    7.6713    0.0601 H         1 <0>         0.1403
     39 H14        -5.6926    9.0085    0.0751 H         1 <0>         0.1347
     40 H15        -7.8832    7.8829    0.0759 H         1 <0>         0.1322
     41 H16         2.6207    0.8625   -0.0184 H         1 <0>         0.2307
     42 H17         3.1170    2.4676   -0.0145 H         1 <0>         0.2525
@<TRIPOS>BOND
     1    1    6 ar
     2    1    2 ar
     3    1   26 1
     4    2    3 ar
     5    2   27 1
     6    3    4 ar
     7    3   28 1
     8    4    5 ar
     9    4    7 1
    10    5    6 ar
    11    5   29 1
    12    6   30 1
    13    7   11 1
    14    7    8 1
    15    8    9 2
    16    8   25 1
    17    9   10 1
    18   10   11 2
    19   11   12 1
    20   12   13 1
    21   13   14 1
    22   13   31 1
    23   13   32 1
    24   14   15 2
    25   14   16 am
    26   16   20 1
    27   16   17 1
    28   17   18 1
    29   17   33 1
    30   17   34 1
    31   18   19 1
    32   18   35 1
    33   18   36 1
    34   19   24 ar
    35   19   20 ar
    36   20   21 ar
    37   21   22 ar
    38   21   37 1
    39   22   23 ar
    40   22   38 1
    41   23   24 ar
    42   23   39 1
    43   24   40 1
    44   25   41 1
    45   25   42 1
@<TRIPOS>MOLECULE
ZINC02855742
   40    42     0     0     0
SMALL
USER_CHARGES

@<TRIPOS>ATOM
      1 C1         11.8690    3.9202    4.4962 C.3       1 <0>        -0.1979
      2 C2         11.0855    2.6517    4.2774 C.ar      1 <0>         0.0199
      3 C3          9.8323    2.7081    3.6932 C.ar      1 <0>        -0.1438
      4 C4          9.1125    1.5501    3.4845 C.ar      1 <0>        -0.0654
      5 C5          9.6455    0.3207    3.8758 C.ar      1 <0>        -0.1424
      6 C6         10.9096    0.2708    4.4649 C.ar      1 <0>         0.0011
      7 C7         11.6220    1.4359    4.6619 C.ar      1 <0>        -0.1242
      8 N1         12.9630    1.3850    5.2865 N.pl3     1 <0>         0.5499
      9 O1         13.3837    0.3361    5.7409 O.2       1 <0>        -0.3395
     10 O2         13.6457    2.3919    5.3460 O.3       1 <0>        -0.3544
     11 C8          8.8765   -0.9238    3.6617 C.2       1 <0>         0.3543
     12 O3          9.3452   -1.9935    3.9989 O.2       1 <0>        -0.3367
     13 N2          7.6559   -0.8723    3.0926 N.am      1 <0>        -0.3093
     14 N3          6.9273   -2.0516    2.8897 N.pl3     1 <0>        -0.1984
     15 C9          5.7066   -2.0001    2.3206 C.2       1 <0>         0.1744
     16 S1          4.8163   -3.4411    2.0726 S.2       1 <0>        -0.3393
     17 N4          5.1870   -0.8141    1.9467 N.pl3     1 <0>        -0.2704
     18 C10         3.8737   -0.7457    1.4640 C.ar      1 <0>         0.0371
     19 C11         2.8710   -1.4895    2.0718 C.ar      1 <0>        -0.0802
     20 C12         1.5752   -1.4234    1.5965 C.ar      1 <0>        -0.1058
     21 C13         1.2725   -0.6150    0.5128 C.ar      1 <0>         0.0131
     22 C14         2.2761    0.1323   -0.0989 C.ar      1 <0>         0.0066
     23 C15         3.5747    0.0652    0.3778 C.ar      1 <0>        -0.1272
     24 O4          1.7274    0.8380   -1.1306 O.3       1 <0>        -0.2067
     25 C16         0.3080    0.8318   -0.8890 C.3       1 <0>         0.1072
     26 O5          0.0944   -0.3769   -0.1365 O.3       1 <0>        -0.2033
     27 H1         12.5776    4.0551    3.6789 H         1 <0>         0.1151
     28 H2         11.1854    4.7686    4.5281 H         1 <0>         0.0847
     29 H3         12.4108    3.8545    5.4397 H         1 <0>         0.1329
     30 H4          9.4189    3.6605    3.3956 H         1 <0>         0.1547
     31 H5          8.1367    1.5950    3.0237 H         1 <0>         0.1279
     32 H6         11.3296   -0.6777    4.7655 H         1 <0>         0.1937
     33 H7          7.2819   -0.0187    2.8235 H         1 <0>         0.2451
     34 H8          7.3013   -2.9052    3.1588 H         1 <0>         0.3165
     35 H9          5.7223   -0.0078    2.0117 H         1 <0>         0.2180
     36 H10         3.1042   -2.1205    2.9166 H         1 <0>         0.1775
     37 H11         0.7970   -2.0028    2.0709 H         1 <0>         0.1539
     38 H12         4.3543    0.6441   -0.0949 H         1 <0>         0.1404
     39 H13        -0.2405    0.7989   -1.8304 H         1 <0>         0.1335
     40 H14         0.0152    1.7038   -0.3043 H         1 <0>         0.0872
@<TRIPOS>BOND
     1    1    2 1
     2    1   27 1
     3    1   28 1
     4    1   29 1
     5    2    7 ar
     6    2    3 ar
     7    3    4 ar
     8    3   30 1
     9    4    5 ar
    10    4   31 1
    11    5    6 ar
    12    5   11 1
    13    6    7 ar
    14    6   32 1
    15    7    8 1
    16    8    9 2
    17    8   10 1
    18   11   12 2
    19   11   13 am
    20   13   14 1
    21   13   33 1
    22   14   15 1
    23   14   34 1
    24   15   16 2
    25   15   17 1
    26   17   18 1
    27   17   35 1
    28   18   23 ar
    29   18   19 ar
    30   19   20 ar
    31   19   36 1
    32   20   21 ar
    33   20   37 1
    34   21   26 1
    35   21   22 ar
    36   22   23 ar
    37   22   24 1
    38   23   38 1
    39   24   25 1
    40   25   26 1
    41   25   39 1
    42   25   40 1
@<TRIPOS>MOLECULE
ZINC02861066
   41    44     0     0     0
SMALL
USER_CHARGES

@<TRIPOS>ATOM
      1 C1         11.2054   -5.4741    0.5269 C.ar      1 <0>        -0.1568
      2 C2         10.9077   -4.1213    0.4238 C.ar      1 <0>        -0.0879
      3 C3          9.6133   -3.6895    0.3535 C.ar      1 <0>        -0.1289
      4 C4          8.5707   -4.6205    0.3855 C.ar      1 <0>         0.0675
      5 C5          8.8776   -5.9963    0.4905 C.ar      1 <0>        -0.1898
      6 C6         10.2076   -6.4087    0.5606 C.ar      1 <0>        -0.0475
      7 C7          7.7649   -6.9551    0.5219 C.2       1 <0>         0.3483
      8 O1          7.9653   -8.1525    0.6108 O.2       1 <0>        -0.3416
      9 N1          6.5086   -6.4571    0.4477 N.am      1 <0>        -0.2944
     10 H1          5.7259   -7.0792    0.4662 H         1 <0>         0.2595
     11 C8          6.3026   -5.1107    0.3478 C.2       1 <0>        -0.0155
     12 N2          7.2798   -4.2385    0.3133 N.2       1 <0>        -0.2584
     13 S1          4.6454   -4.5193    0.2539 S.3       1 <0>         0.3071
     14 C9          4.9529   -2.7392    0.1404 C.3       1 <0>        -0.3012
     15 C10         3.6388   -2.0074    0.0477 C.2       1 <0>         0.3136
     16 O2          2.5968   -2.6283    0.0573 O.2       1 <0>        -0.3401
     17 N3          3.6213   -0.6630   -0.0460 N.am      1 <0>        -0.3165
     18 C11         2.4012    0.0251   -0.0209 C.ar      1 <0>         0.0571
     19 C12         1.3458   -0.4598    0.7399 C.ar      1 <0>        -0.1263
     20 C13         0.1422    0.2175    0.7639 C.ar      1 <0>        -0.1052
     21 C14        -0.0160    1.3837    0.0296 C.ar      1 <0>         0.0066
     22 C15         1.0398    1.8734   -0.7303 C.ar      1 <0>         0.0359
     23 C16         2.2470    1.1919   -0.7559 C.ar      1 <0>        -0.1554
     24 O3          0.9062    3.0206   -1.4506 O.3       1 <0>        -0.2057
     25 C17        -0.4291    3.4730   -1.6993 C.3       1 <0>        -0.0512
     26 C18        -1.2157    3.3954   -0.3839 C.3       1 <0>        -0.0522
     27 O4         -1.2127    2.0334    0.0592 O.3       1 <0>        -0.2031
     28 H2         12.2363   -5.7914    0.5807 H         1 <0>         0.1360
     29 H3         11.7112   -3.4000    0.3992 H         1 <0>         0.1335
     30 H4          9.3967   -2.6345    0.2732 H         1 <0>         0.1439
     31 H5         10.4480   -7.4585    0.6413 H         1 <0>         0.1545
     32 H6          5.5491   -2.5294   -0.7477 H         1 <0>         0.1416
     33 H7          5.4923   -2.4064    1.0271 H         1 <0>         0.1421
     34 H8          4.4534   -0.1719   -0.1309 H         1 <0>         0.2358
     35 H9          1.4658   -1.3674    1.3129 H         1 <0>         0.1643
     36 H10        -0.6777   -0.1619    1.3556 H         1 <0>         0.1512
     37 H11         3.0676    1.5694   -1.3479 H         1 <0>         0.1451
     38 H12        -0.4080    4.5032   -2.0547 H         1 <0>         0.1217
     39 H13        -0.8997    2.8356   -2.4479 H         1 <0>         0.0964
     40 H14        -0.7414    4.0284    0.3660 H         1 <0>         0.0937
     41 H15        -2.2414    3.7254   -0.5488 H         1 <0>         0.1223
@<TRIPOS>BOND
     1    1    6 ar
     2    1    2 ar
     3    1   28 1
     4    2    3 ar
     5    2   29 1
     6    3    4 ar
     7    3   30 1
     8    4   12 1
     9    4    5 ar
    10    5    6 ar
    11    5    7 1
    12    6   31 1
    13    7    8 2
    14    7    9 am
    15    9   10 1
    16    9   11 1
    17   11   12 2
    18   11   13 1
    19   13   14 1
    20   14   15 1
    21   14   32 1
    22   14   33 1
    23   15   16 2
    24   15   17 am
    25   17   18 1
    26   17   34 1
    27   18   23 ar
    28   18   19 ar
    29   19   20 ar
    30   19   35 1
    31   20   21 ar
    32   20   36 1
    33   21   27 1
    34   21   22 ar
    35   22   23 ar
    36   22   24 1
    37   23   37 1
    38   24   25 1
    39   25   26 1
    40   25   38 1
    41   25   39 1
    42   26   27 1
    43   26   40 1
    44   26   41 1
@<TRIPOS>MOLECULE
ZINC02861066
   41    44     0     0     0
SMALL
USER_CHARGES

@<TRIPOS>ATOM
      1 C1         11.2046   -5.4725    0.5497 C.ar      1 <0>        -0.1629
      2 C2         10.9069   -4.1198    0.4461 C.ar      1 <0>        -0.0723
      3 C3          9.6127   -3.6884    0.3701 C.ar      1 <0>        -0.1867
      4 C4          8.5703   -4.6197    0.3965 C.ar      1 <0>         0.0660
      5 C5          8.8772   -5.9955    0.5020 C.ar      1 <0>        -0.1901
      6 C6         10.2070   -6.4075    0.5780 C.ar      1 <0>        -0.0358
      7 C7          7.7649   -6.9551    0.5223 C.2       1 <0>         0.3171
      8 O1          7.9653   -8.1525    0.6112 O.2       1 <0>        -0.3038
      9 N1          6.5086   -6.4571    0.4484 N.2       1 <0>        -0.2731
     10 H1          7.0627   -3.2654    0.2367 H         1 <0>         0.2392
     11 C8          6.3026   -5.1107    0.3485 C.2       1 <0>        -0.0153
     12 N2          7.2796   -4.2381    0.3189 N.pl3     1 <0>        -0.2340
     13 S1          4.6454   -4.5192    0.2550 S.3       1 <0>         0.3929
     14 C9          4.9529   -2.7391    0.1413 C.3       1 <0>        -0.3716
     15 C10         3.6388   -2.0073    0.0490 C.2       1 <0>         0.3228
     16 O2          2.5967   -2.6282    0.0589 O.2       1 <0>        -0.3214
     17 N3          3.6213   -0.6629   -0.0448 N.am      1 <0>        -0.3162
     18 C11         2.4012    0.0252   -0.0194 C.ar      1 <0>         0.0524
     19 C12         1.3460   -0.4596    0.7417 C.ar      1 <0>        -0.1247
     20 C13         0.1424    0.2177    0.7660 C.ar      1 <0>        -0.1039
     21 C14        -0.0160    1.3839    0.0317 C.ar      1 <0>         0.0101
     22 C15         1.0396    1.8735   -0.7285 C.ar      1 <0>         0.0365
     23 C16         2.2468    1.1920   -0.7544 C.ar      1 <0>        -0.1541
     24 O3          0.9058    3.0207   -1.4489 O.3       1 <0>        -0.2056
     25 C17        -0.4295    3.4731   -1.6972 C.3       1 <0>        -0.0514
     26 C18        -1.2157    3.3956   -0.3816 C.3       1 <0>        -0.0524
     27 O4         -1.2126    2.0336    0.0616 O.3       1 <0>        -0.2017
     28 H2         12.2354   -5.7895    0.6081 H         1 <0>         0.1383
     29 H3         11.7103   -3.3982    0.4258 H         1 <0>         0.1348
     30 H4          9.3962   -2.6334    0.2895 H         1 <0>         0.1279
     31 H5         10.4474   -7.4573    0.6591 H         1 <0>         0.1632
     32 H6          5.5488   -2.5294   -0.7470 H         1 <0>         0.1213
     33 H7          5.4925   -2.4063    1.0278 H         1 <0>         0.1222
     34 H8          4.4533   -0.1718   -0.1300 H         1 <0>         0.2319
     35 H9          1.4661   -1.3672    1.3147 H         1 <0>         0.1646
     36 H10        -0.6773   -0.1616    1.3580 H         1 <0>         0.1535
     37 H11         3.0672    1.5694   -1.3467 H         1 <0>         0.1443
     38 H12        -0.4085    4.5032   -2.0527 H         1 <0>         0.1227
     39 H13        -0.9004    2.8356   -2.4456 H         1 <0>         0.0974
     40 H14        -0.7412    4.0286    0.3681 H         1 <0>         0.0942
     41 H15        -2.2415    3.7256   -0.5462 H         1 <0>         0.1239
@<TRIPOS>BOND
     1    1    6 ar
     2    1    2 ar
     3    1   28 1
     4    2    3 ar
     5    2   29 1
     6    3    4 ar
     7    3   30 1
     8    4    5 ar
     9    4   12 1
    10    5    6 ar
    11    5    7 1
    12    6   31 1
    13    7    9 1
    14    7    8 2
    15    9   11 2
    16   10   12 1
    17   11   13 1
    18   11   12 1
    19   13   14 1
    20   14   15 1
    21   14   32 1
    22   14   33 1
    23   15   16 2
    24   15   17 am
    25   17   18 1
    26   17   34 1
    27   18   23 ar
    28   18   19 ar
    29   19   20 ar
    30   19   35 1
    31   20   21 ar
    32   20   36 1
    33   21   27 1
    34   21   22 ar
    35   22   23 ar
    36   22   24 1
    37   23   37 1
    38   24   25 1
    39   25   26 1
    40   25   38 1
    41   25   39 1
    42   26   27 1
    43   26   40 1
    44   26   41 1
@<TRIPOS>MOLECULE
ZINC02861066
   41    44     0     0     0
SMALL
USER_CHARGES

@<TRIPOS>ATOM
      1 C1         11.2060   -5.4758    0.5053 C.ar      1 <0>        -0.1394
      2 C2         10.9085   -4.1234    0.3973 C.ar      1 <0>        -0.0916
      3 C3          9.6138   -3.6907    0.3382 C.ar      1 <0>        -0.1190
      4 C4          8.5710   -4.6213    0.3754 C.ar      1 <0>         0.1055
      5 C5          8.8777   -5.9967    0.4854 C.ar      1 <0>        -0.2605
      6 C6         10.2079   -6.4096    0.5499 C.ar      1 <0>        -0.1003
      7 C7          7.7645   -6.9543    0.5334 C.ar      1 <0>         0.2410
      8 O1          7.9647   -8.1513    0.6279 O.3       1 <0>        -0.1580
      9 N1          6.5082   -6.4563    0.4587 N.ar      1 <0>        -0.2622
     10 H1          8.9491   -8.3222    0.6703 H         1 <0>         0.2719
     11 C8          6.3026   -5.1107    0.3485 C.ar      1 <0>        -0.0335
     12 N2          7.2799   -4.2388    0.3091 N.ar      1 <0>        -0.2887
     13 S1          4.6454   -4.5192    0.2551 S.3       1 <0>         0.3718
     14 C9          4.9529   -2.7391    0.1419 C.3       1 <0>        -0.3248
     15 C10         3.6387   -2.0073    0.0497 C.2       1 <0>         0.3151
     16 O2          2.5967   -2.6282    0.0593 O.2       1 <0>        -0.3391
     17 N3          3.6212   -0.6628   -0.0437 N.am      1 <0>        -0.3200
     18 C11         2.4011    0.0253   -0.0182 C.ar      1 <0>         0.0603
     19 C12         1.3459   -0.4598    0.7427 C.ar      1 <0>        -0.1264
     20 C13         0.1423    0.2175    0.7671 C.ar      1 <0>        -0.1050
     21 C14        -0.0160    1.3839    0.0331 C.ar      1 <0>         0.0040
     22 C15         1.0396    1.8737   -0.7269 C.ar      1 <0>         0.0350
     23 C16         2.2468    1.1922   -0.7529 C.ar      1 <0>        -0.1575
     24 O3          0.9059    3.0211   -1.4470 O.3       1 <0>        -0.2065
     25 C17        -0.4295    3.4736   -1.6953 C.3       1 <0>        -0.0510
     26 C18        -1.2158    3.3957   -0.3797 C.3       1 <0>        -0.0520
     27 O4         -1.2127    2.0336    0.0630 O.3       1 <0>        -0.2037
     28 H2         12.2370   -5.7935    0.5545 H         1 <0>         0.1345
     29 H3         11.7123   -3.4027    0.3643 H         1 <0>         0.1362
     30 H4          9.3972   -2.6356    0.2584 H         1 <0>         0.1495
     31 H5         10.4481   -7.4591    0.6346 H         1 <0>         0.1157
     32 H6          5.5489   -2.5291   -0.7462 H         1 <0>         0.1364
     33 H7          5.4924   -2.4065    1.0286 H         1 <0>         0.1367
     34 H8          4.4533   -0.1717   -0.1287 H         1 <0>         0.2345
     35 H9          1.4660   -1.3675    1.3154 H         1 <0>         0.1658
     36 H10        -0.6775   -0.1620    1.3588 H         1 <0>         0.1505
     37 H11         3.0673    1.5699   -1.3450 H         1 <0>         0.1443
     38 H12        -0.4084    4.5038   -2.0505 H         1 <0>         0.1204
     39 H13        -0.9002    2.8363   -2.4439 H         1 <0>         0.0961
     40 H14        -0.7414    4.0285    0.3702 H         1 <0>         0.0929
     41 H15        -2.2415    3.7257   -0.5444 H         1 <0>         0.1212
@<TRIPOS>BOND
     1    1    6 ar
     2    1    2 ar
     3    1   28 1
     4    2    3 ar
     5    2   29 1
     6    3    4 ar
     7    3   30 1
     8    4    5 ar
     9    4   12 ar
    10    5    6 ar
    11    5    7 ar
    12    6   31 1
    13    7    9 ar
    14    7    8 1
    15    8   10 1
    16    9   11 ar
    17   11   13 1
    18   11   12 ar
    19   13   14 1
    20   14   15 1
    21   14   32 1
    22   14   33 1
    23   15   16 2
    24   15   17 am
    25   17   18 1
    26   17   34 1
    27   18   23 ar
    28   18   19 ar
    29   19   20 ar
    30   19   35 1
    31   20   21 ar
    32   20   36 1
    33   21   27 1
    34   21   22 ar
    35   22   23 ar
    36   22   24 1
    37   23   37 1
    38   24   25 1
    39   25   26 1
    40   25   38 1
    41   25   39 1
    42   26   27 1
    43   26   40 1
    44   26   41 1
@<TRIPOS>MOLECULE
ZINC02861550
   48    50     0     0     0
SMALL
USER_CHARGES

@<TRIPOS>ATOM
      1 C1          1.5843    3.9523   -1.7818 C.3       1 <0>        -0.0639
      2 O1          2.0542    3.3450   -0.5767 O.3       1 <0>        -0.2104
      3 C2          1.8534    2.0078   -0.4407 C.ar      1 <0>         0.0993
      4 C3          2.2844    1.3533    0.7041 C.ar      1 <0>        -0.1548
      5 C4          2.0787   -0.0059    0.8401 C.ar      1 <0>        -0.0838
      6 C5          1.4439   -0.7141   -0.1635 C.ar      1 <0>        -0.1156
      7 C6          1.0135   -0.0641   -1.3055 C.ar      1 <0>        -0.0960
      8 C7          1.2172    1.2949   -1.4465 C.ar      1 <0>        -0.2142
      9 C8          1.2213   -2.1969   -0.0127 C.3       1 <0>        -0.0408
     10 C9          0.5284   -2.4930    1.3334 C.3       1 <0>        -0.1559
     11 C10         1.1750   -3.8173    1.8101 C.3       1 <0>        -0.1646
     12 C11         2.6536   -3.6499    1.3804 C.3       1 <0>        -0.1629
     13 C12         2.5725   -2.9324    0.0172 C.3       1 <0>        -0.1507
     14 C13         0.3790   -2.7105   -1.1520 C.2       1 <0>         0.3200
     15 O2          0.8544   -3.4827   -1.9575 O.2       1 <0>        -0.3476
     16 N1         -0.9025   -2.3119   -1.2757 N.am      1 <0>        -0.3320
     17 C14        -1.7173   -2.8732   -2.2651 C.ar      1 <0>         0.1166
     18 C15        -3.0659   -3.0907   -2.0150 C.ar      1 <0>        -0.1879
     19 C16        -3.8687   -3.6401   -2.9954 C.ar      1 <0>        -0.0067
     20 C17        -3.3286   -3.9836   -4.2212 C.ar      1 <0>        -0.7826
     21 C18        -1.9849   -3.7736   -4.4713 C.ar      1 <0>        -0.0139
     22 C19        -1.1780   -3.2193   -3.4971 C.ar      1 <0>        -0.1560
     23 S1         -4.3549   -4.6900   -5.4672 S.o2      1 <0>         2.7634
     24 O3         -5.6845   -4.2799   -5.1788 O.2       1 <0>        -0.9223
     25 O4         -3.7270   -4.4183   -6.7127 O.2       1 <0>        -0.9154
     26 N2         -4.3116   -6.3329   -5.2638 N.pl3     1 <0>        -0.9286
     27 H1          1.8074    5.0191   -1.7620 H         1 <0>         0.1105
     28 H2          2.0799    3.4933   -2.6372 H         1 <0>         0.0705
     29 H3          0.5071    3.8079   -1.8654 H         1 <0>         0.0685
     30 H4          2.7762    1.9069    1.4903 H         1 <0>         0.1466
     31 H5          2.4143   -0.5159    1.7310 H         1 <0>         0.1395
     32 H6          0.5179   -0.6195   -2.0880 H         1 <0>         0.1394
     33 H7          0.8808    1.8021   -2.3387 H         1 <0>         0.1395
     34 H8          0.7252   -1.6936    2.0477 H         1 <0>         0.0991
     35 H9         -0.5443   -2.6222    1.1900 H         1 <0>         0.0832
     36 H10         0.7211   -4.6716    1.3078 H         1 <0>         0.0936
     37 H11         1.0963   -3.9179    2.8926 H         1 <0>         0.0872
     38 H12         3.1318   -4.6233    1.2714 H         1 <0>         0.0910
     39 H13         3.1936   -3.0373    2.1024 H         1 <0>         0.0819
     40 H14         2.6187   -3.6615   -0.7918 H         1 <0>         0.1237
     41 H15         3.3893   -2.2170   -0.0782 H         1 <0>         0.0960
     42 H16        -1.2599   -1.6358   -0.6790 H         1 <0>         0.2437
     43 H17        -3.4875   -2.8263   -1.0565 H         1 <0>         0.1373
     44 H18        -4.9185   -3.8053   -2.8032 H         1 <0>         0.1538
     45 H19        -1.5661   -4.0430   -5.4296 H         1 <0>         0.1555
     46 H20        -0.1288   -3.0549   -3.6933 H         1 <0>         0.1721
     47 H21        -5.0785   -6.8726   -5.5118 H         1 <0>         0.2430
     48 H22        -3.5194   -6.7555   -4.8968 H         1 <0>         0.2318
@<TRIPOS>BOND
     1    1    2 1
     2    1   27 1
     3    1   28 1
     4    1   29 1
     5    2    3 1
     6    3    8 ar
     7    3    4 ar
     8    4    5 ar
     9    4   30 1
    10    5    6 ar
    11    5   31 1
    12    6    7 ar
    13    6    9 1
    14    7    8 ar
    15    7   32 1
    16    8   33 1
    17    9   13 1
    18    9   10 1
    19    9   14 1
    20   10   11 1
    21   10   34 1
    22   10   35 1
    23   11   12 1
    24   11   36 1
    25   11   37 1
    26   12   13 1
    27   12   38 1
    28   12   39 1
    29   13   40 1
    30   13   41 1
    31   14   15 2
    32   14   16 am
    33   16   17 1
    34   16   42 1
    35   17   22 ar
    36   17   18 ar
    37   18   19 ar
    38   18   43 1
    39   19   20 ar
    40   19   44 1
    41   20   21 ar
    42   20   23 1
    43   21   22 ar
    44   21   45 1
    45   22   46 1
    46   23   24 2
    47   23   25 2
    48   23   26 1
    49   26   47 1
    50   26   48 1
@<TRIPOS>MOLECULE
ZINC02865347
   44    46     0     0     0
SMALL
USER_CHARGES

@<TRIPOS>ATOM
      1 C1         -6.6485    3.6226   -3.7327 C.3       1 <0>        -0.1710
      2 C2         -5.5229    3.1143   -2.8691 C.ar      1 <0>        -0.1013
      3 C3         -5.7397    2.8728   -1.5249 C.ar      1 <0>        -0.1047
      4 C4         -4.7100    2.4077   -0.7305 C.ar      1 <0>        -0.1691
      5 C5         -3.4561    2.1822   -1.2832 C.ar      1 <0>         0.0771
      6 C6         -3.2404    2.4303   -2.6325 C.ar      1 <0>        -0.1571
      7 C7         -4.2755    2.8907   -3.4225 C.ar      1 <0>        -0.1035
      8 N1         -2.4107    1.7116   -0.4810 N.am      1 <0>        -0.2817
      9 C8         -2.4986    1.5325    0.9730 C.3       1 <0>        -0.0100
     10 C9         -1.0346    1.4304    1.4664 C.3       1 <0>        -0.1553
     11 H1         -0.6522    2.4079    1.7605 H         1 <0>         0.1344
     12 C10        -0.3147    0.9129    0.1996 C.3       1 <0>        -0.1949
     13 C11        -1.1967    1.3657   -0.9431 C.2       1 <0>         0.3142
     14 O1         -0.8575    1.4109   -2.1067 O.2       1 <0>        -0.3404
     15 C12        -0.9117    0.4427    2.5980 C.2       1 <0>         0.3121
     16 O2         -1.9070   -0.0601    3.0748 O.2       1 <0>        -0.3587
     17 N2          0.3044    0.1183    3.0802 N.am      1 <0>        -0.3129
     18 C13         0.4273   -0.8764    4.0475 C.ar      1 <0>         0.1311
     19 C14        -0.4164   -1.9789    4.0257 C.ar      1 <0>        -0.1418
     20 C15        -0.2929   -2.9633    4.9852 C.ar      1 <0>        -0.0817
     21 C16         0.6706   -2.8603    5.9756 C.ar      1 <0>        -0.1555
     22 C17         1.5170   -1.7735    6.0127 C.ar      1 <0>        -0.0848
     23 C18         1.4079   -0.7720    5.0450 C.ar      1 <0>        -0.1733
     24 C19         2.3145    0.3913    5.0756 C.2       1 <0>         0.3649
     25 O3          2.2738    1.2173    4.1843 O.2       1 <0>        -0.3994
     26 N3          3.1878    0.5386    6.0916 N.am      1 <0>        -0.4208
     27 H2         -6.6497    4.7126   -3.7236 H         1 <0>         0.0836
     28 H3         -6.5113    3.2680   -4.7542 H         1 <0>         0.0807
     29 H4         -7.5985    3.2550   -3.3450 H         1 <0>         0.0790
     30 H5         -6.7150    3.0484   -1.0957 H         1 <0>         0.1311
     31 H6         -4.8797    2.2200    0.3194 H         1 <0>         0.1314
     32 H7         -2.2654    2.2598   -3.0643 H         1 <0>         0.1809
     33 H8         -4.1095    3.0803   -4.4726 H         1 <0>         0.1343
     34 H9         -2.9911    2.3910    1.4297 H         1 <0>         0.1052
     35 H10        -3.0408    0.6166    1.2081 H         1 <0>         0.1217
     36 H11        -0.2435   -0.1746    0.2187 H         1 <0>         0.1252
     37 H12         0.6768    1.3577    0.1156 H         1 <0>         0.1252
     38 H13         1.0939    0.5775    2.7536 H         1 <0>         0.2695
     39 H14        -1.1699   -2.0664    3.2569 H         1 <0>         0.1636
     40 H15        -0.9515   -3.8190    4.9641 H         1 <0>         0.1386
     41 H16         0.7590   -3.6358    6.7221 H         1 <0>         0.1348
     42 H17         2.2668   -1.6983    6.7864 H         1 <0>         0.1261
     43 H18         3.2202   -0.1204    6.8026 H         1 <0>         0.2200
     44 H19         3.7839    1.3035    6.1117 H         1 <0>         0.2334
@<TRIPOS>BOND
     1    1    2 1
     2    1   27 1
     3    1   28 1
     4    1   29 1
     5    2    7 ar
     6    2    3 ar
     7    3    4 ar
     8    3   30 1
     9    4    5 ar
    10    4   31 1
    11    5    6 ar
    12    5    8 1
    13    6    7 ar
    14    6   32 1
    15    7   33 1
    16    8   13 am
    17    8    9 1
    18    9   10 1
    19    9   34 1
    20    9   35 1
    21   10   11 1
    22   10   12 1
    23   10   15 1
    24   12   13 1
    25   12   36 1
    26   12   37 1
    27   13   14 2
    28   15   16 2
    29   15   17 am
    30   17   18 1
    31   17   38 1
    32   18   23 ar
    33   18   19 ar
    34   19   20 ar
    35   19   39 1
    36   20   21 ar
    37   20   40 1
    38   21   22 ar
    39   21   41 1
    40   22   23 ar
    41   22   42 1
    42   23   24 1
    43   24   25 2
    44   24   26 am
    45   26   43 1
    46   26   44 1
@<TRIPOS>MOLECULE
ZINC02865348
   44    46     0     0     0
SMALL
USER_CHARGES

@<TRIPOS>ATOM
      1 C1          0.4183  -10.6416    5.5371 C.3       1 <0>        -0.1706
      2 C2         -0.0269   -9.5033    4.6556 C.ar      1 <0>        -0.1020
      3 C3          0.1188   -9.5955    3.2836 C.ar      1 <0>        -0.1049
      4 C4         -0.2882   -8.5540    2.4729 C.ar      1 <0>        -0.1663
      5 C5         -0.8443   -7.4134    3.0371 C.ar      1 <0>         0.0812
      6 C6         -0.9840   -7.3216    4.4157 C.ar      1 <0>        -0.1570
      7 C7         -0.5807   -8.3691    5.2204 C.ar      1 <0>        -0.1039
      8 N1         -1.2577   -6.3565    2.2186 N.am      1 <0>        -0.2753
      9 C8         -1.0402   -6.2982    0.7683 C.3       1 <0>        -0.0128
     10 C9         -1.2506   -4.8181    0.3792 C.3       1 <0>        -0.1543
     11 H1         -1.7347   -4.7350   -0.5939 H         1 <0>         0.1361
     12 C10        -2.1869   -4.3256    1.5069 C.3       1 <0>        -0.1945
     13 C11        -1.9047   -5.2639    2.6596 C.2       1 <0>         0.3118
     14 O1         -2.2174   -5.0602    3.8136 O.2       1 <0>        -0.3418
     15 C12         0.0549   -4.0655    0.3949 C.2       1 <0>         0.3124
     16 O2          1.0957   -4.6604    0.5786 O.2       1 <0>        -0.3541
     17 N2          0.0659   -2.7312    0.2048 N.am      1 <0>        -0.3121
     18 C13         1.2778   -2.0522    0.1029 C.ar      1 <0>         0.1258
     19 C14         2.3330   -2.3778    0.9447 C.ar      1 <0>        -0.1333
     20 C15         3.5312   -1.7001    0.8455 C.ar      1 <0>        -0.0856
     21 C16         3.6928   -0.6952   -0.0946 C.ar      1 <0>        -0.1519
     22 C17         2.6581   -0.3614   -0.9413 C.ar      1 <0>        -0.0894
     23 C18         1.4396   -1.0387   -0.8532 C.ar      1 <0>        -0.1684
     24 C19         0.3277   -0.6861   -1.7562 C.2       1 <0>         0.3621
     25 O3         -0.7215   -1.2978   -1.6963 O.2       1 <0>        -0.3970
     26 N3          0.4747    0.3141   -2.6475 N.am      1 <0>        -0.4225
     27 H2          1.4605  -10.4954    5.8207 H         1 <0>         0.0837
     28 H3         -0.2015  -10.6710    6.4334 H         1 <0>         0.0799
     29 H4          0.3177  -11.5819    4.9950 H         1 <0>         0.0782
     30 H5          0.5517  -10.4827    2.8455 H         1 <0>         0.1303
     31 H6         -0.1745   -8.6267    1.4014 H         1 <0>         0.1297
     32 H7         -1.4120   -6.4340    4.8578 H         1 <0>         0.1803
     33 H8         -0.6935   -8.3003    6.2923 H         1 <0>         0.1335
     34 H9         -1.7632   -6.9302    0.2527 H         1 <0>         0.0932
     35 H10        -0.0244   -6.6111    0.5264 H         1 <0>         0.1316
     36 H11        -1.9450   -3.2992    1.7825 H         1 <0>         0.1221
     37 H12        -3.2294   -4.4032    1.1983 H         1 <0>         0.1259
     38 H13        -0.7702   -2.2438    0.1390 H         1 <0>         0.2612
     39 H14         2.2146   -3.1594    1.6806 H         1 <0>         0.1680
     40 H15         4.3478   -1.9544    1.5050 H         1 <0>         0.1391
     41 H16         4.6343   -0.1706   -0.1640 H         1 <0>         0.1343
     42 H17         2.7892    0.4226   -1.6724 H         1 <0>         0.1255
     43 H18         1.3117    0.8020   -2.6953 H         1 <0>         0.2194
     44 H19        -0.2551    0.5433   -3.2440 H         1 <0>         0.2325
@<TRIPOS>BOND
     1    1    2 1
     2    1   27 1
     3    1   28 1
     4    1   29 1
     5    2    7 ar
     6    2    3 ar
     7    3    4 ar
     8    3   30 1
     9    4    5 ar
    10    4   31 1
    11    5    6 ar
    12    5    8 1
    13    6    7 ar
    14    6   32 1
    15    7   33 1
    16    8   13 am
    17    8    9 1
    18    9   10 1
    19    9   34 1
    20    9   35 1
    21   10   11 1
    22   10   12 1
    23   10   15 1
    24   12   13 1
    25   12   36 1
    26   12   37 1
    27   13   14 2
    28   15   16 2
    29   15   17 am
    30   17   18 1
    31   17   38 1
    32   18   23 ar
    33   18   19 ar
    34   19   20 ar
    35   19   39 1
    36   20   21 ar
    37   20   40 1
    38   21   22 ar
    39   21   41 1
    40   22   23 ar
    41   22   42 1
    42   23   24 1
    43   24   25 2
    44   24   26 am
    45   26   43 1
    46   26   44 1
@<TRIPOS>MOLECULE
ZINC02869356
   41    43     0     0     0
SMALL
USER_CHARGES

@<TRIPOS>ATOM
      1 C1          2.3515   -3.6185   -5.8052 C.3       1 <0>        -0.1844
      2 C2          2.2210   -3.2057   -4.3617 C.ar      1 <0>        -0.0151
      3 C3          3.2936   -2.6281   -3.7083 C.ar      1 <0>        -0.1532
      4 C4          3.1738   -2.2490   -2.3844 C.ar      1 <0>        -0.0096
      5 C5          1.9812   -2.4471   -1.7140 C.ar      1 <0>        -0.7662
      6 C6          0.9103   -3.0294   -2.3658 C.ar      1 <0>        -0.0240
      7 C7          1.0289   -3.4050   -3.6909 C.ar      1 <0>        -0.1531
      8 S1          1.8284   -1.9638   -0.0264 S.o2      1 <0>         2.7751
      9 O1          3.1433   -1.9479    0.5121 O.2       1 <0>        -0.8731
     10 O2          0.7869   -2.7544    0.5297 O.2       1 <0>        -0.9031
     11 N1          1.2923   -0.3971   -0.0124 N.pl3     1 <0>        -0.6190
     12 C8          0.0021   -0.0041    0.0020 C.2       1 <0>        -0.0344
     13 C9         -0.0164    1.3597    0.0095 C.2       1 <0>        -0.1801
     14 C10         1.3260    1.8032   -0.0009 C.2       1 <0>         0.1298
     15 N2          2.1008    0.7459   -0.0140 N.2       1 <0>        -0.1218
     16 N3          1.7521    3.1351    0.0022 N.pl3     1 <0>        -0.3877
     17 C11        -1.2251    2.2208    0.0201 C.ar      1 <0>        -0.0462
     18 C12        -2.0875    2.2019    1.1132 C.ar      1 <0>        -0.0790
     19 C13        -3.2080    3.0084    1.1206 C.ar      1 <0>        -0.1669
     20 C14        -3.4829    3.8285    0.0408 C.ar      1 <0>        -0.0877
     21 C15        -2.6359    3.8507   -1.0514 C.ar      1 <0>        -0.2227
     22 C16        -1.5057    3.0500   -1.0694 C.ar      1 <0>         0.0992
     23 O3         -0.6722    3.0710   -2.1426 O.3       1 <0>        -0.2032
     24 C17        -1.0227    3.9429   -3.2192 C.3       1 <0>        -0.0650
     25 H1          2.7043   -4.6485   -5.8580 H         1 <0>         0.0947
     26 H2          1.3805   -3.5414   -6.2943 H         1 <0>         0.0865
     27 H3          3.0642   -2.9641   -6.3072 H         1 <0>         0.0873
     28 H4          4.2251   -2.4727   -4.2323 H         1 <0>         0.1386
     29 H5          4.0117   -1.7977   -1.8739 H         1 <0>         0.1575
     30 H6         -0.0200   -3.1882   -1.8407 H         1 <0>         0.1462
     31 H7          0.1911   -3.8566   -4.2012 H         1 <0>         0.1370
     32 H8         -0.8614   -0.6528    0.0065 H         1 <0>         0.1903
     33 H9          1.0998    3.8530    0.0122 H         1 <0>         0.2359
     34 H10         2.6999    3.3411   -0.0058 H         1 <0>         0.2305
     35 H11        -1.8782    1.5596    1.9558 H         1 <0>         0.1420
     36 H12        -3.8745    2.9960    1.9704 H         1 <0>         0.1335
     37 H13        -4.3634    4.4539    0.0512 H         1 <0>         0.1307
     38 H14        -2.8557    4.4926   -1.8916 H         1 <0>         0.1359
     39 H15        -1.0600    4.9703   -2.8573 H         1 <0>         0.0657
     40 H16        -0.2761    3.8629   -4.0093 H         1 <0>         0.1101
     41 H17        -1.9993    3.6604   -3.6123 H         1 <0>         0.0691
@<TRIPOS>BOND
     1    1    2 1
     2    1   25 1
     3    1   26 1
     4    1   27 1
     5    2    7 ar
     6    2    3 ar
     7    3    4 ar
     8    3   28 1
     9    4    5 ar
    10    4   29 1
    11    5    6 ar
    12    5    8 1
    13    6    7 ar
    14    6   30 1
    15    7   31 1
    16    8    9 2
    17    8   10 2
    18    8   11 1
    19   11   15 1
    20   11   12 1
    21   12   13 2
    22   12   32 1
    23   13   14 1
    24   13   17 1
    25   14   15 2
    26   14   16 1
    27   16   33 1
    28   16   34 1
    29   17   22 ar
    30   17   18 ar
    31   18   19 ar
    32   18   35 1
    33   19   20 ar
    34   19   36 1
    35   20   21 ar
    36   20   37 1
    37   21   22 ar
    38   21   38 1
    39   22   23 1
    40   23   24 1
    41   24   39 1
    42   24   40 1
    43   24   41 1
@<TRIPOS>MOLECULE
ZINC02871334
   49    52     0     0     0
SMALL
USER_CHARGES

@<TRIPOS>ATOM
      1 C1         -0.7217    5.3409    2.1723 C.3       1 <0>        -0.2117
      2 C2         -1.0214    5.6837    0.7117 C.3       1 <0>        -0.0600
      3 C3         -1.7360    4.5005    0.0490 C.3       1 <0>        -0.1123
      4 C4         -0.7805    3.3247    0.0281 C.2       1 <0>         0.1022
      5 C5          0.5690    3.5045    0.0130 C.2       1 <0>        -0.2940
      6 C6          1.1822    4.7663    0.0089 C.2       1 <0>         0.3029
      7 O1          2.3921    4.8751    0.0247 O.2       1 <0>        -0.2988
      8 C7          0.2889    5.9873   -0.0163 C.3       1 <0>        -0.1881
      9 C8          1.1836    2.1361    0.0022 C.3       1 <0>         0.1057
     10 C9          1.9930    1.9213   -1.2451 C.ar      1 <0>        -0.0964
     11 C10         1.3521    1.7575   -2.4597 C.ar      1 <0>        -0.0883
     12 C11         2.0874    1.5589   -3.6126 C.ar      1 <0>        -0.1433
     13 C12         3.4686    1.5228   -3.5550 C.ar      1 <0>        -0.0982
     14 C13         4.1139    1.6864   -2.3459 C.ar      1 <0>        -0.1355
     15 C14         3.3779    1.8871   -1.1843 C.ar      1 <0>         0.1140
     16 O2          4.0257    2.0484   -0.0046 O.3       1 <0>        -0.1382
     17 C15         3.3716    1.8786    1.1561 C.2       1 <0>         0.3079
     18 C16         2.0182    1.9103    1.2276 C.2       1 <0>        -0.2717
     19 C17         1.3752    1.7260    2.4938 C.1       1 <0>        -0.0566
     20 N1          0.8651    1.5797    3.4982 N.1       1 <0>        -0.0880
     21 N2          4.0946    1.6667    2.3034 N.pl3     1 <0>        -0.3814
     22 C18        -0.0144    1.2083    0.0087 C.2       1 <0>         0.3205
     23 O3          0.0021   -0.0041    0.0020 O.2       1 <0>        -0.2931
     24 N3         -1.1028    2.0049    0.0174 N.am      1 <0>        -0.2609
     25 C19        -2.4792    1.5029    0.0185 C.3       1 <0>         0.0084
     26 C20        -2.9468    1.3220    1.4396 C.2       1 <0>        -0.1894
     27 C21        -4.0454    1.9076    1.8473 C.2       1 <0>        -0.2078
     28 C22        -1.9286    6.9145    0.6561 C.3       1 <0>        -0.2032
     29 H1         -0.2268    6.1866    2.6498 H         1 <0>         0.0827
     30 H2         -1.6542    5.1241    2.6934 H         1 <0>         0.0779
     31 H3         -0.0705    4.4678    2.2144 H         1 <0>         0.0954
     32 H4         -2.6265    4.2409    0.6215 H         1 <0>         0.1050
     33 H5         -2.0171    4.7644   -0.9705 H         1 <0>         0.1067
     34 H6          0.7544    6.7469    0.4380 H         1 <0>         0.1079
     35 H7          0.0748    6.2587   -1.0501 H         1 <0>         0.1057
     36 H8          0.2734    1.7845   -2.5071 H         1 <0>         0.1343
     37 H9          1.5831    1.4316   -4.5591 H         1 <0>         0.1345
     38 H10         4.0426    1.3668   -4.4565 H         1 <0>         0.1381
     39 H11         5.1926    1.6580   -2.3024 H         1 <0>         0.1459
     40 H12         5.0636    1.6413    2.2683 H         1 <0>         0.2309
     41 H13         3.6365    1.5423    3.1494 H         1 <0>         0.2577
     42 H14        -3.1270    2.2177   -0.4889 H         1 <0>         0.0941
     43 H15        -2.5171    0.5455   -0.5012 H         1 <0>         0.1229
     44 H16        -2.3761    0.7096    2.1221 H         1 <0>         0.1492
     45 H17        -4.6161    2.5200    1.1648 H         1 <0>         0.1060
     46 H18        -4.3805    1.7779    2.8657 H         1 <0>         0.1236
     47 H19        -2.1388    7.1643   -0.3838 H         1 <0>         0.0737
     48 H20        -2.8634    6.7005    1.1744 H         1 <0>         0.0779
     49 H21        -1.4301    7.7554    1.1382 H         1 <0>         0.0850
@<TRIPOS>BOND
     1    1    2 1
     2    1   29 1
     3    1   30 1
     4    1   31 1
     5    2    8 1
     6    2    3 1
     7    2   28 1
     8    3    4 1
     9    3   32 1
    10    3   33 1
    11    4   24 1
    12    4    5 2
    13    5    6 1
    14    5    9 1
    15    6    7 2
    16    6    8 1
    17    8   34 1
    18    8   35 1
    19    9   18 1
    20    9   10 1
    21    9   22 1
    22   10   15 ar
    23   10   11 ar
    24   11   12 ar
    25   11   36 1
    26   12   13 ar
    27   12   37 1
    28   13   14 ar
    29   13   38 1
    30   14   15 ar
    31   14   39 1
    32   15   16 1
    33   16   17 1
    34   17   18 2
    35   17   21 1
    36   18   19 1
    37   19   20 3
    38   21   40 1
    39   21   41 1
    40   22   23 2
    41   22   24 am
    42   24   25 1
    43   25   26 1
    44   25   42 1
    45   25   43 1
    46   26   27 2
    47   26   44 1
    48   27   45 1
    49   27   46 1
    50   28   47 1
    51   28   48 1
    52   28   49 1
@<TRIPOS>MOLECULE
ZINC02871468
   43    45     0     0     0
SMALL
USER_CHARGES

@<TRIPOS>ATOM
      1 C1          1.5428   -0.4242   -1.5600 C.3       1 <0>        -0.0629
      2 O1          0.2624    0.2101   -1.5710 O.3       1 <0>        -0.2046
      3 C2          0.1257    1.3370   -0.8238 C.ar      1 <0>         0.1161
      4 C3          1.2029    1.8218   -0.0949 C.ar      1 <0>        -0.2339
      5 C4          1.0652    2.9669    0.6660 C.ar      1 <0>        -0.0718
      6 C5         -0.1461    3.6302    0.7076 C.ar      1 <0>        -0.1985
      7 C6         -1.2257    3.1529   -0.0242 C.ar      1 <0>         0.0906
      8 C7         -1.0893    2.0025   -0.7887 C.ar      1 <0>        -0.1586
      9 N1         -2.4509    3.8276    0.0137 N.am      1 <0>        -0.3208
     10 C8         -3.6043    3.1357   -0.0735 C.2       1 <0>         0.3050
     11 O2         -3.5843    1.9231   -0.0882 O.2       1 <0>        -0.3347
     12 C9         -4.9186    3.8687   -0.1528 C.3       1 <0>        -0.1594
     13 H1         -5.0397    4.5412    0.6964 H         1 <0>         0.1261
     14 C10        -5.0446    4.6357   -1.4895 C.3       1 <0>        -0.1918
     15 C11        -5.7700    3.6724   -2.4030 C.2       1 <0>         0.3131
     16 O3         -5.8241    3.7677   -3.6110 O.2       1 <0>        -0.3229
     17 N2         -6.3464    2.6960   -1.6812 N.am      1 <0>        -0.2779
     18 C12        -6.0997    2.8774   -0.2459 C.3       1 <0>        -0.0097
     19 C13        -7.0862    1.6416   -2.2280 C.ar      1 <0>         0.0885
     20 C14        -7.7434    0.7465   -1.3938 C.ar      1 <0>        -0.1347
     21 C15        -8.4731   -0.2927   -1.9366 C.ar      1 <0>        -0.1090
     22 C16        -8.5499   -0.4426   -3.3093 C.ar      1 <0>        -0.1004
     23 C17        -7.8965    0.4465   -4.1425 C.ar      1 <0>        -0.0835
     24 C18        -7.1696    1.4914   -3.6059 C.ar      1 <0>        -0.1100
     25 N3         -7.9813    0.2823   -5.6110 N.pl3     1 <0>         0.5487
     26 O4         -8.6265   -0.6356   -6.0850 O.2       1 <0>        -0.3607
     27 O5         -7.4059    1.0652   -6.3456 O.3       1 <0>        -0.3440
     28 H2          2.2952    0.2693   -1.9357 H         1 <0>         0.0677
     29 H3          1.7948   -0.7165   -0.5406 H         1 <0>         0.0686
     30 H4          1.5152   -1.3095   -2.1954 H         1 <0>         0.1107
     31 H5          2.1498    1.3031   -0.1222 H         1 <0>         0.1366
     32 H6          1.9047    3.3416    1.2328 H         1 <0>         0.1331
     33 H7         -0.2523    4.5227    1.3064 H         1 <0>         0.1290
     34 H8         -1.9286    1.6265   -1.3550 H         1 <0>         0.1724
     35 H9         -2.4703    4.7933    0.1028 H         1 <0>         0.2344
     36 H10        -5.6289    5.5458   -1.3535 H         1 <0>         0.1269
     37 H11        -4.0581    4.8708   -1.8890 H         1 <0>         0.1293
     38 H12        -5.8311    1.9264    0.2139 H         1 <0>         0.1318
     39 H13        -6.9816    3.2949    0.2399 H         1 <0>         0.0947
     40 H14        -7.6836    0.8628   -0.3218 H         1 <0>         0.1414
     41 H15        -8.9841   -0.9892   -1.2885 H         1 <0>         0.1476
     42 H16        -9.1212   -1.2561   -3.7314 H         1 <0>         0.1642
     43 H17        -6.6633    2.1884   -4.2573 H         1 <0>         0.2131
@<TRIPOS>BOND
     1    1    2 1
     2    1   28 1
     3    1   29 1
     4    1   30 1
     5    2    3 1
     6    3    8 ar
     7    3    4 ar
     8    4    5 ar
     9    4   31 1
    10    5    6 ar
    11    5   32 1
    12    6    7 ar
    13    6   33 1
    14    7    8 ar
    15    7    9 1
    16    8   34 1
    17    9   10 am
    18    9   35 1
    19   10   11 2
    20   10   12 1
    21   12   13 1
    22   12   18 1
    23   12   14 1
    24   14   15 1
    25   14   36 1
    26   14   37 1
    27   15   16 2
    28   15   17 am
    29   17   18 1
    30   17   19 1
    31   18   38 1
    32   18   39 1
    33   19   24 ar
    34   19   20 ar
    35   20   21 ar
    36   20   40 1
    37   21   22 ar
    38   21   41 1
    39   22   23 ar
    40   22   42 1
    41   23   24 ar
    42   23   25 1
    43   24   43 1
    44   25   26 2
    45   25   27 1
@<TRIPOS>MOLECULE
ZINC02872187
   39    41     0     0     0
SMALL
USER_CHARGES

@<TRIPOS>ATOM
      1 C1         -5.8564    2.6081   -3.5669 C.3       1 <0>        -0.0459
      2 N1         -6.5104    2.9247   -2.2947 N.pl3     1 <0>        -0.2897
      3 C2         -7.8259    3.5695   -2.2880 C.3       1 <0>        -0.0522
      4 C3         -5.8874    2.6155   -1.1029 C.ar      1 <0>         0.2828
      5 N2         -4.6920    2.0295   -1.1081 N.ar      1 <0>        -0.3457
      6 C4         -4.0945    1.7335    0.0327 C.ar      1 <0>         0.1660
      7 N3         -4.6826    2.0130    1.1828 N.ar      1 <0>        -0.3491
      8 C5         -5.8755    2.6034    1.1961 C.ar      1 <0>         0.2816
      9 N4         -6.4794    2.9026    0.0511 N.ar      1 <0>        -0.3823
     10 N5         -6.4863    2.8996    2.3975 N.pl3     1 <0>        -0.3667
     11 C6         -2.7416    1.0698    0.0223 C.3       1 <0>        -0.1936
     12 S1         -1.4483    2.3360    0.0219 S.3       1 <0>         0.2612
     13 C7         -0.0157    1.3103    0.0092 C.2       1 <0>        -0.2121
     14 N6          1.2829    1.7326   -0.0009 N.pl3     1 <0>        -0.1887
     15 H1          1.6012    2.6489    0.0007 H         1 <0>         0.2587
     16 C8          2.0456    0.5876   -0.0143 C.2       1 <0>        -0.0363
     17 N7          1.2149   -0.4288   -0.0118 N.2       1 <0>        -0.0739
     18 N8          0.0021   -0.0041    0.0020 N.2       1 <0>        -0.1034
     19 C9          3.5222    0.5155   -0.0284 C.ar      1 <0>        -0.0102
     20 C10         4.2811    1.6869   -0.0357 C.ar      1 <0>        -0.1232
     21 C11         5.6586    1.6126   -0.0440 C.ar      1 <0>        -0.1264
     22 C12         6.2879    0.3804   -0.0557 C.ar      1 <0>        -0.1171
     23 C13         5.5415   -0.7845   -0.0537 C.ar      1 <0>        -0.1282
     24 C14         4.1633   -0.7243   -0.0402 C.ar      1 <0>        -0.0841
     25 H2         -6.1465    1.6068   -3.8853 H         1 <0>         0.0734
     26 H3         -6.1614    3.3322   -4.3223 H         1 <0>         0.0765
     27 H4         -4.7747    2.6497   -3.4395 H         1 <0>         0.1098
     28 H5         -8.1491    3.7247   -1.2586 H         1 <0>         0.1190
     29 H6         -7.7618    4.5309   -2.7976 H         1 <0>         0.0707
     30 H7         -8.5453    2.9327   -2.8026 H         1 <0>         0.0716
     31 H8         -7.3573    3.3266    2.4064 H         1 <0>         0.2398
     32 H9         -6.0448    2.6809    3.2330 H         1 <0>         0.2433
     33 H10        -2.6464    0.4530   -0.8714 H         1 <0>         0.1460
     34 H11        -2.6371    0.4439    0.9085 H         1 <0>         0.1468
     35 H12         3.7910    2.6493   -0.0308 H         1 <0>         0.1208
     36 H13         6.2471    2.5182   -0.0452 H         1 <0>         0.1331
     37 H14         7.3666    0.3278   -0.0659 H         1 <0>         0.1325
     38 H15         6.0388   -1.7431   -0.0632 H         1 <0>         0.1370
     39 H16         3.5818   -1.6343   -0.0383 H         1 <0>         0.1580
@<TRIPOS>BOND
     1    1    2 1
     2    1   25 1
     3    1   26 1
     4    1   27 1
     5    2    3 1
     6    2    4 1
     7    3   28 1
     8    3   29 1
     9    3   30 1
    10    4    9 ar
    11    4    5 ar
    12    5    6 ar
    13    6    7 ar
    14    6   11 1
    15    7    8 ar
    16    8    9 ar
    17    8   10 1
    18   10   31 1
    19   10   32 1
    20   11   12 1
    21   11   33 1
    22   11   34 1
    23   12   13 1
    24   13   18 2
    25   13   14 1
    26   14   15 1
    27   14   16 1
    28   16   17 2
    29   16   19 1
    30   17   18 1
    31   19   24 ar
    32   19   20 ar
    33   20   21 ar
    34   20   35 1
    35   21   22 ar
    36   21   36 1
    37   22   23 ar
    38   22   37 1
    39   23   24 ar
    40   23   38 1
    41   24   39 1
@<TRIPOS>MOLECULE
ZINC02873537
   39    41     0     0     0
SMALL
USER_CHARGES

@<TRIPOS>ATOM
      1 C1         -4.9951    8.3605    0.7086 C.3       1 <0>        -0.0633
      2 O1         -5.2666    6.9717    0.5097 O.3       1 <0>        -0.2110
      3 C2         -4.1982    6.1321    0.4811 C.ar      1 <0>         0.1033
      4 C3         -4.3921    4.7708    0.2915 C.ar      1 <0>        -0.1660
      5 C4         -3.3100    3.9160    0.2620 C.ar      1 <0>        -0.0564
      6 C5         -2.0206    4.4206    0.4234 C.ar      1 <0>        -0.0604
      7 C6         -1.8297    5.7874    0.6199 C.ar      1 <0>        -0.0754
      8 C7         -2.9156    6.6376    0.6422 C.ar      1 <0>        -0.2250
      9 C8         -0.8546    3.5042    0.3922 C.2       1 <0>         0.0275
     10 C9          0.4112    3.9937    0.5499 C.2       1 <0>        -0.3723
     11 S1          1.3672    2.4878    0.4263 S.3       1 <0>         0.2762
     12 C10        -0.0062    1.3708    0.1793 C.2       1 <0>        -0.0132
     13 N1         -1.0307    2.2041    0.2049 N.2       1 <0>        -0.2490
     14 N2          0.0021   -0.0041    0.0020 N.pl3     1 <0>        -0.2499
     15 C11         1.2161   -0.6858   -0.1182 C.ar      1 <0>         0.1331
     16 C12         2.2997   -0.0743   -0.7361 C.ar      1 <0>        -0.1986
     17 C13         3.4999   -0.7483   -0.8472 C.ar      1 <0>         0.0079
     18 C14         3.6200   -2.0354   -0.3558 C.ar      1 <0>        -0.7892
     19 C15         2.5415   -2.6494    0.2544 C.ar      1 <0>         0.0042
     20 C16         1.3404   -1.9786    0.3748 C.ar      1 <0>        -0.1898
     21 S2          5.1509   -2.8946   -0.5068 S.o2      1 <0>         2.7643
     22 O2          6.1625   -1.9040   -0.6272 O.2       1 <0>        -0.9159
     23 O3          5.1668   -3.8791    0.5178 O.2       1 <0>        -0.9166
     24 N3          5.1141   -3.7111   -1.9471 N.pl3     1 <0>        -0.9314
     25 H1         -4.4886    8.4985    1.6639 H         1 <0>         0.0685
     26 H2         -4.3575    8.7251   -0.0967 H         1 <0>         0.0683
     27 H3         -5.9322    8.9173    0.7105 H         1 <0>         0.1085
     28 H4         -5.3913    4.3805    0.1665 H         1 <0>         0.1451
     29 H5         -3.4615    2.8569    0.1144 H         1 <0>         0.1553
     30 H6         -0.8323    6.1807    0.7497 H         1 <0>         0.1299
     31 H7         -2.7679    7.6974    0.7892 H         1 <0>         0.1360
     32 H8          0.7427    5.0096    0.7061 H         1 <0>         0.1983
     33 H9         -0.8347   -0.4929   -0.0386 H         1 <0>         0.2627
     34 H10         2.2052    0.9291   -1.1244 H         1 <0>         0.1584
     35 H11         4.3444   -0.2714   -1.3225 H         1 <0>         0.1593
     36 H12         2.6388   -3.6545    0.6374 H         1 <0>         0.1583
     37 H13         0.4987   -2.4585    0.8520 H         1 <0>         0.1443
     38 H14         4.3336   -3.6495   -2.5196 H         1 <0>         0.2296
     39 H15         5.8731   -4.2508   -2.2181 H         1 <0>         0.2444
@<TRIPOS>BOND
     1    1    2 1
     2    1   25 1
     3    1   26 1
     4    1   27 1
     5    2    3 1
     6    3    8 ar
     7    3    4 ar
     8    4    5 ar
     9    4   28 1
    10    5    6 ar
    11    5   29 1
    12    6    7 ar
    13    6    9 1
    14    7    8 ar
    15    7   30 1
    16    8   31 1
    17    9   13 1
    18    9   10 2
    19   10   11 1
    20   10   32 1
    21   11   12 1
    22   12   13 2
    23   12   14 1
    24   14   15 1
    25   14   33 1
    26   15   20 ar
    27   15   16 ar
    28   16   17 ar
    29   16   34 1
    30   17   18 ar
    31   17   35 1
    32   18   19 ar
    33   18   21 1
    34   19   20 ar
    35   19   36 1
    36   20   37 1
    37   21   22 2
    38   21   23 2
    39   21   24 1
    40   24   38 1
    41   24   39 1
@<TRIPOS>MOLECULE
ZINC02873919
   43    45     0     0     0
SMALL
USER_CHARGES

@<TRIPOS>ATOM
      1 C1         -6.9254    2.3985   -1.4262 C.3       1 <0>        -0.2090
      2 C2         -5.3955    2.4184   -1.4321 C.3       1 <0>        -0.1854
      3 C3         -4.8798    2.4092    0.0084 C.3       1 <0>        -0.0061
      4 N1         -3.4149    2.4282    0.0027 N.am      1 <0>        -0.3189
      5 C4         -2.6398    1.3290   -0.0129 C.2       1 <0>         0.3556
      6 O1         -3.0370    0.1816   -0.0241 O.2       1 <0>        -0.2956
      7 C5         -1.2215    1.7528   -0.0196 C.ar      1 <0>        -0.1103
      8 C6         -0.0124    1.0754   -0.0259 C.ar      1 <0>        -0.0708
      9 C7          1.1763    1.7849   -0.0224 C.ar      1 <0>        -0.0935
     10 C8          1.1634    3.1796   -0.0072 C.ar      1 <0>        -0.1151
     11 C9         -0.0518    3.8705    0.0051 C.ar      1 <0>        -0.0036
     12 C10        -1.2412    3.1625    0.0016 C.ar      1 <0>        -0.1415
     13 C11        -2.6686    3.5471    0.0120 C.2       1 <0>         0.3586
     14 O2         -3.0960    4.6838    0.0270 O.2       1 <0>        -0.2912
     15 C12         2.4390    3.9296   -0.0035 C.2       1 <0>         0.3445
     16 O3          2.4294    5.1450    0.0097 O.2       1 <0>        -0.3441
     17 N2          3.6115    3.2651   -0.0149 N.am      1 <0>        -0.3146
     18 C13         4.8153    3.9711   -0.1283 C.ar      1 <0>         0.0509
     19 C14         4.8323    5.2235   -0.7285 C.ar      1 <0>        -0.1179
     20 C15         6.0196    5.9193   -0.8395 C.ar      1 <0>        -0.1383
     21 C16         7.1956    5.3677   -0.3517 C.ar      1 <0>         0.0574
     22 C17         7.1793    4.1171    0.2483 C.ar      1 <0>        -0.1359
     23 C18         5.9916    3.4220    0.3644 C.ar      1 <0>        -0.0980
     24 C19         5.9732    2.0657    1.0209 C.3       1 <0>        -0.1753
     25 O4          8.3645    6.0535   -0.4613 O.3       1 <0>        -0.2912
     26 H1         -7.2982    3.2780   -0.9012 H         1 <0>         0.0766
     27 H2         -7.2928    2.4051   -2.4524 H         1 <0>         0.0819
     28 H3         -7.2751    1.4983   -0.9208 H         1 <0>         0.0759
     29 H4         -5.0458    3.3186   -1.9374 H         1 <0>         0.0947
     30 H5         -5.0228    1.5389   -1.9571 H         1 <0>         0.0935
     31 H6         -5.2295    1.5090    0.5137 H         1 <0>         0.1118
     32 H7         -5.2526    3.2887    0.5334 H         1 <0>         0.1130
     33 H8          0.0025   -0.0045   -0.0381 H         1 <0>         0.1549
     34 H9          2.1180    1.2562   -0.0311 H         1 <0>         0.1359
     35 H10        -0.0625    4.9504    0.0169 H         1 <0>         0.1775
     36 H11         3.6214    2.2977    0.0555 H         1 <0>         0.2351
     37 H12         3.9170    5.6532   -1.1079 H         1 <0>         0.1742
     38 H13         6.0330    6.8933   -1.3058 H         1 <0>         0.1454
     39 H14         8.0950    3.6886    0.6280 H         1 <0>         0.1426
     40 H15         6.1433    1.2955    0.2685 H         1 <0>         0.0847
     41 H16         6.7585    2.0164    1.7752 H         1 <0>         0.0913
     42 H17         5.0045    1.9040    1.4938 H         1 <0>         0.0742
     43 H18         8.5545    6.6299    0.2915 H         1 <0>         0.2262
@<TRIPOS>BOND
     1    1    2 1
     2    1   26 1
     3    1   27 1
     4    1   28 1
     5    2    3 1
     6    2   29 1
     7    2   30 1
     8    3    4 1
     9    3   31 1
    10    3   32 1
    11    4   13 am
    12    4    5 am
    13    5    6 2
    14    5    7 1
    15    7   12 ar
    16    7    8 ar
    17    8    9 ar
    18    8   33 1
    19    9   10 ar
    20    9   34 1
    21   10   11 ar
    22   10   15 1
    23   11   12 ar
    24   11   35 1
    25   12   13 1
    26   13   14 2
    27   15   16 2
    28   15   17 am
    29   17   18 1
    30   17   36 1
    31   18   23 ar
    32   18   19 ar
    33   19   20 ar
    34   19   37 1
    35   20   21 ar
    36   20   38 1
    37   21   22 ar
    38   21   25 1
    39   22   23 ar
    40   22   39 1
    41   23   24 1
    42   24   40 1
    43   24   41 1
    44   24   42 1
    45   25   43 1
@<TRIPOS>MOLECULE
ZINC02875345
   42    44     0     0     0
SMALL
USER_CHARGES

@<TRIPOS>ATOM
      1 C1         14.9234   -0.1314    6.5624 C.3       1 <0>        -0.2158
      2 C2         14.3234   -1.4838    6.9523 C.3       1 <0>        -0.0040
      3 O1         13.0021   -1.6145    6.3646 O.3       1 <0>        -0.2669
      4 C3         12.3320   -2.7575    6.6134 C.2       1 <0>         0.3816
      5 O2         12.8384   -3.6212    7.3028 O.2       1 <0>        -0.3962
      6 C4         10.9891   -2.9593    6.0510 C.ar      1 <0>        -0.3340
      7 C5         10.3400   -1.9340    5.3522 C.ar      1 <0>         0.0917
      8 N1          9.1367   -2.1565    4.8584 N.ar      1 <0>        -0.3017
      9 C6          8.5325   -3.3281    5.0232 C.ar      1 <0>        -0.0201
     10 N2          9.1053   -4.3291    5.6765 N.ar      1 <0>        -0.2763
     11 C7         10.3172   -4.1930    6.2010 C.ar      1 <0>         0.2689
     12 N3         10.9092   -5.2365    6.8801 N.pl3     1 <0>        -0.3613
     13 S1          6.9225   -3.5609    4.3462 S.3       1 <0>         0.3739
     14 C8          6.6567   -1.9332    3.6005 C.3       1 <0>        -0.3256
     15 C9          5.3014   -1.8974    2.9424 C.2       1 <0>         0.3159
     16 O3          4.5857   -2.8761    2.9745 O.2       1 <0>        -0.3383
     17 N4          4.8848   -0.7779    2.3183 N.am      1 <0>        -0.3190
     18 C10         3.5849   -0.7071    1.8005 C.ar      1 <0>         0.0633
     19 C11         2.5452   -1.3670    2.4418 C.ar      1 <0>        -0.1223
     20 C12         1.2626   -1.2977    1.9326 C.ar      1 <0>        -0.0948
     21 C13         1.0101   -0.5699    0.7809 C.ar      1 <0>        -0.0095
     22 C14         2.0511    0.0932    0.1353 C.ar      1 <0>         0.0206
     23 C15         3.3363    0.0232    0.6465 C.ar      1 <0>        -0.1467
     24 O4          1.5484    0.7303   -0.9623 O.3       1 <0>        -0.2077
     25 C16         0.1248    0.7888   -0.7549 C.3       1 <0>         0.1076
     26 O5         -0.1452   -0.3478    0.0868 O.3       1 <0>        -0.2064
     27 H1         15.9153   -0.0332    7.0036 H         1 <0>         0.0915
     28 H2         15.0006   -0.0675    5.4771 H         1 <0>         0.0870
     29 H3         14.2818    0.6700    6.9289 H         1 <0>         0.0864
     30 H4         14.2462   -1.5477    8.0377 H         1 <0>         0.0905
     31 H5         14.9650   -2.2851    6.5859 H         1 <0>         0.0907
     32 H6         10.8194   -0.9759    5.2156 H         1 <0>         0.1801
     33 H7         10.4804   -6.1063    6.9018 H         1 <0>         0.2321
     34 H8         11.7544   -5.1009    7.3362 H         1 <0>         0.2721
     35 H9          7.4282   -1.7453    2.8538 H         1 <0>         0.1380
     36 H10         6.7054   -1.1668    4.3740 H         1 <0>         0.1381
     37 H11         5.4848   -0.0212    2.2276 H         1 <0>         0.2361
     38 H12         2.7392   -1.9353    3.3394 H         1 <0>         0.1693
     39 H13         0.4553   -1.8115    2.4334 H         1 <0>         0.1494
     40 H14         4.1449    0.5363    0.1473 H         1 <0>         0.1433
     41 H15        -0.4045    0.6973   -1.7033 H         1 <0>         0.1310
     42 H16        -0.1509    1.7141   -0.2490 H         1 <0>         0.0872
@<TRIPOS>BOND
     1    1    2 1
     2    1   27 1
     3    1   28 1
     4    1   29 1
     5    2    3 1
     6    2   30 1
     7    2   31 1
     8    3    4 1
     9    4    5 2
    10    4    6 1
    11    6   11 ar
    12    6    7 ar
    13    7    8 ar
    14    7   32 1
    15    8    9 ar
    16    9   10 ar
    17    9   13 1
    18   10   11 ar
    19   11   12 1
    20   12   33 1
    21   12   34 1
    22   13   14 1
    23   14   15 1
    24   14   35 1
    25   14   36 1
    26   15   16 2
    27   15   17 am
    28   17   18 1
    29   17   37 1
    30   18   23 ar
    31   18   19 ar
    32   19   20 ar
    33   19   38 1
    34   20   21 ar
    35   20   39 1
    36   21   26 1
    37   21   22 ar
    38   22   23 ar
    39   22   24 1
    40   23   40 1
    41   24   25 1
    42   25   26 1
    43   25   41 1
    44   25   42 1
@<TRIPOS>MOLECULE
ZINC02880011
   40    41     0     0     0
SMALL
USER_CHARGES

@<TRIPOS>ATOM
      1 C1          7.3271    4.2695    1.6120 C.3       1 <0>        -0.1796
      2 C2          6.1148    3.3923    1.4336 C.ar      1 <0>        -0.0464
      3 C3          5.1281    3.3739    2.4025 C.ar      1 <0>        -0.1434
      4 C4          4.0157    2.5717    2.2423 C.ar      1 <0>        -0.0782
      5 C5          3.8886    1.7818    1.1059 C.ar      1 <0>        -0.2523
      6 C6          4.8851    1.7982    0.1374 C.ar      1 <0>        -0.0748
      7 C7          5.9915    2.6079    0.3012 C.ar      1 <0>        -0.1442
      8 S1          2.4708    0.7566    0.8971 S.3       1 <0>         0.1979
      9 C8          1.2292    1.8660    0.1772 C.3       1 <0>        -0.2533
     10 H1          1.1337    2.7564    0.7986 H         1 <0>         0.1136
     11 C9          1.6641    2.2720   -1.2324 C.3       1 <0>        -0.2050
     12 C10        -0.0986    1.1566    0.1085 C.2       1 <0>         0.3211
     13 O1         -0.1421   -0.0546    0.1522 O.2       1 <0>        -0.3270
     14 N1         -1.2375    1.8680   -0.0073 N.am      1 <0>        -0.3243
     15 C11        -2.4548    1.2114   -0.1842 C.ar      1 <0>         0.0885
     16 C12        -2.5037    0.0222   -0.9047 C.ar      1 <0>        -0.1397
     17 C13        -3.7031   -0.6312   -1.0771 C.ar      1 <0>        -0.0854
     18 C14        -4.8741   -0.0931   -0.5365 C.ar      1 <0>        -0.1498
     19 C15        -4.8223    1.1043    0.1821 C.ar      1 <0>        -0.0463
     20 C16        -3.6187    1.7498    0.3553 C.ar      1 <0>        -0.1756
     21 C17        -6.1626   -0.7882   -0.7238 C.2       1 <0>         0.3520
     22 O2         -7.1806   -0.3190   -0.2526 O.2       1 <0>        -0.3728
     23 N2         -6.2109   -1.9429   -1.4171 N.am      1 <0>        -0.4285
     24 H2          8.1048    3.7127    2.1347 H         1 <0>         0.0922
     25 H3          7.6973    4.5807    0.6351 H         1 <0>         0.0842
     26 H4          7.0561    5.1497    2.1951 H         1 <0>         0.0841
     27 H5          5.2275    3.9880    3.2853 H         1 <0>         0.1348
     28 H6          3.2452    2.5583    2.9989 H         1 <0>         0.1416
     29 H7          4.7917    1.1823   -0.7449 H         1 <0>         0.1438
     30 H8          6.7638    2.6250   -0.4535 H         1 <0>         0.1350
     31 H9          0.9590    2.9992   -1.6348 H         1 <0>         0.0755
     32 H10         2.6594    2.7147   -1.1921 H         1 <0>         0.0925
     33 H11         1.6838    1.3913   -1.8743 H         1 <0>         0.1006
     34 H12        -1.2103    2.8368    0.0325 H         1 <0>         0.2351
     35 H13        -1.5990   -0.3910   -1.3257 H         1 <0>         0.1631
     36 H14        -3.7397   -1.5564   -1.6330 H         1 <0>         0.1290
     37 H15        -5.7254    1.5226    0.6015 H         1 <0>         0.1596
     38 H16        -3.5780    2.6751    0.9109 H         1 <0>         0.1354
     39 H17        -5.3988   -2.3172   -1.7930 H         1 <0>         0.2162
     40 H18        -7.0577   -2.3997   -1.5402 H         1 <0>         0.2309
@<TRIPOS>BOND
     1    1    2 1
     2    1   24 1
     3    1   25 1
     4    1   26 1
     5    2    7 ar
     6    2    3 ar
     7    3    4 ar
     8    3   27 1
     9    4    5 ar
    10    4   28 1
    11    5    6 ar
    12    5    8 1
    13    6    7 ar
    14    6   29 1
    15    7   30 1
    16    8    9 1
    17    9   10 1
    18    9   11 1
    19    9   12 1
    20   11   31 1
    21   11   32 1
    22   11   33 1
    23   12   13 2
    24   12   14 am
    25   14   15 1
    26   14   34 1
    27   15   20 ar
    28   15   16 ar
    29   16   17 ar
    30   16   35 1
    31   17   18 ar
    32   17   36 1
    33   18   19 ar
    34   18   21 1
    35   19   20 ar
    36   19   37 1
    37   20   38 1
    38   21   22 2
    39   21   23 am
    40   23   39 1
    41   23   40 1
@<TRIPOS>MOLECULE
ZINC02880012
   40    41     0     0     0
SMALL
USER_CHARGES

@<TRIPOS>ATOM
      1 C1          4.2824   -3.0749    6.0782 C.3       1 <0>        -0.1741
      2 C2          4.2113   -3.5277    4.6426 C.ar      1 <0>        -0.0803
      3 C3          5.2903   -4.1756    4.0693 C.ar      1 <0>        -0.1111
      4 C4          5.2285   -4.5923    2.7543 C.ar      1 <0>        -0.1030
      5 C5          4.0805   -4.3595    2.0066 C.ar      1 <0>        -0.1950
      6 C6          3.0005   -3.7026    2.5841 C.ar      1 <0>        -0.1460
      7 C7          3.0673   -3.2939    3.9014 C.ar      1 <0>        -0.1092
      8 S1          3.9970   -4.8894    0.3282 S.3       1 <0>         0.2226
      9 C8          2.4273   -4.2053   -0.2705 C.3       1 <0>        -0.2520
     10 H1          1.6243   -4.4888    0.4100 H         1 <0>         0.1147
     11 C9          2.1306   -4.7557   -1.6669 C.3       1 <0>        -0.1898
     12 C10         2.5255   -2.7028   -0.3331 C.2       1 <0>         0.2928
     13 O1          3.6082   -2.1705   -0.4569 O.2       1 <0>        -0.3151
     14 N1          1.4102   -1.9506   -0.2517 N.am      1 <0>        -0.3271
     15 C11         1.4893   -0.5672   -0.4075 C.ar      1 <0>         0.0823
     16 C12         2.5984    0.1230    0.0714 C.ar      1 <0>        -0.1387
     17 C13         2.6799    1.4888   -0.0812 C.ar      1 <0>        -0.0476
     18 C14         1.6470    2.1819   -0.7181 C.ar      1 <0>        -0.1479
     19 C15         0.5346    1.4856   -1.1984 C.ar      1 <0>        -0.0886
     20 C16         0.4592    0.1199   -1.0420 C.ar      1 <0>        -0.1735
     21 C17         1.7307    3.6463   -0.8830 C.2       1 <0>         0.3510
     22 O2          2.6992    4.2508   -0.4646 O.2       1 <0>        -0.3682
     23 N2          0.7337    4.3133   -1.4975 N.am      1 <0>        -0.4301
     24 H2          4.6811   -2.0613    6.1201 H         1 <0>         0.0886
     25 H3          3.2835   -3.0908    6.5141 H         1 <0>         0.0807
     26 H4          4.9342   -3.7451    6.6387 H         1 <0>         0.0820
     27 H5          6.1822   -4.3562    4.6510 H         1 <0>         0.1346
     28 H6          6.0713   -5.0988    2.3075 H         1 <0>         0.1408
     29 H7          2.1083   -3.5161    2.0047 H         1 <0>         0.1203
     30 H8          2.2267   -2.7873    4.3522 H         1 <0>         0.1309
     31 H9          2.9739   -4.5485   -2.3257 H         1 <0>         0.1050
     32 H10         1.9723   -5.8324   -1.6069 H         1 <0>         0.0954
     33 H11         1.2343   -4.2782   -2.0628 H         1 <0>         0.0849
     34 H12         0.5524   -2.3715   -0.0846 H         1 <0>         0.2324
     35 H13         3.3964   -0.4134    0.5632 H         1 <0>         0.1740
     36 H14         3.5390    2.0244    0.2948 H         1 <0>         0.1634
     37 H15        -0.2650    2.0183   -1.6916 H         1 <0>         0.1255
     38 H16        -0.4004   -0.4188   -1.4127 H         1 <0>         0.1308
     39 H17        -0.0389    3.8311   -1.8312 H         1 <0>         0.2142
     40 H18         0.7888    5.2757   -1.6059 H         1 <0>         0.2310
@<TRIPOS>BOND
     1    1    2 1
     2    1   24 1
     3    1   25 1
     4    1   26 1
     5    2    7 ar
     6    2    3 ar
     7    3    4 ar
     8    3   27 1
     9    4    5 ar
    10    4   28 1
    11    5    6 ar
    12    5    8 1
    13    6    7 ar
    14    6   29 1
    15    7   30 1
    16    8    9 1
    17    9   10 1
    18    9   11 1
    19    9   12 1
    20   11   31 1
    21   11   32 1
    22   11   33 1
    23   12   13 2
    24   12   14 am
    25   14   15 1
    26   14   34 1
    27   15   20 ar
    28   15   16 ar
    29   16   17 ar
    30   16   35 1
    31   17   18 ar
    32   17   36 1
    33   18   19 ar
    34   18   21 1
    35   19   20 ar
    36   19   37 1
    37   20   38 1
    38   21   22 2
    39   21   23 am
    40   23   39 1
    41   23   40 1
@<TRIPOS>MOLECULE
ZINC02881720
   42    44     0     0     0
SMALL
USER_CHARGES

@<TRIPOS>ATOM
      1 C1         -6.0232   -1.1405    0.5724 C.ar      1 <0>        -0.0446
      2 C2         -4.9064   -0.5467    0.0289 C.ar      1 <0>        -0.1771
      3 C3         -3.6505   -0.7922    0.5751 C.ar      1 <0>         0.0928
      4 C4         -3.5181   -1.6423    1.6686 C.ar      1 <0>        -0.1387
      5 C5         -4.6314   -2.2346    2.2208 C.ar      1 <0>        -0.0844
      6 C6         -5.8944   -1.9905    1.6744 C.ar      1 <0>        -0.1525
      7 C7         -7.0892   -2.6292    2.2593 C.2       1 <0>         0.3513
      8 O1         -8.1874   -2.4162    1.7825 O.2       1 <0>        -0.3568
      9 N1         -6.9632   -3.4486    3.3220 N.am      1 <0>        -0.3245
     10 C8         -8.0797   -4.1388    3.8101 C.ar      1 <0>         0.0566
     11 C9         -8.1917   -4.4067    5.1680 C.ar      1 <0>        -0.1500
     12 C10        -9.2958   -5.0819    5.6494 C.ar      1 <0>        -0.1363
     13 C11       -10.2872   -5.5031    4.7753 C.ar      1 <0>         0.0515
     14 C12       -10.1730   -5.2413    3.4178 C.ar      1 <0>        -0.1359
     15 C13        -9.0725   -4.5608    2.9357 C.ar      1 <0>        -0.1150
     16 O2        -11.3712   -6.1733    5.2493 O.3       1 <0>        -0.2906
     17 N2         -2.5214   -0.1894    0.0218 N.am      1 <0>        -0.3312
     18 C14        -1.4876    0.1594    0.8131 C.2       1 <0>         0.2965
     19 O3         -1.5759    0.0347    2.0162 O.2       1 <0>        -0.3158
     20 C15        -0.2221    0.7044    0.2029 C.3       1 <0>         0.0056
     21 H1          0.1868   -0.0056   -0.5161 H         1 <0>         0.1043
     22 C16        -0.4988    2.0657   -0.4834 C.3       1 <0>        -0.1920
     23 C17         0.9144    2.7086   -0.4436 C.3       1 <0>        -0.1951
     24 C18         1.4818    2.1703    0.8874 C.3       1 <0>        -0.0229
     25 O4          0.7445    0.9900    1.2264 O.3       1 <0>        -0.2388
     26 H2         -6.9977   -0.9496    0.1480 H         1 <0>         0.1595
     27 H3         -5.0052    0.1102   -0.8226 H         1 <0>         0.1357
     28 H4         -2.5412   -1.8344    2.0871 H         1 <0>         0.1660
     29 H5         -4.5284   -2.8906    3.0725 H         1 <0>         0.1292
     30 H6         -6.0993   -3.5602    3.7486 H         1 <0>         0.2340
     31 H7         -7.4178   -4.0827    5.8481 H         1 <0>         0.1323
     32 H8         -9.3856   -5.2857    6.7062 H         1 <0>         0.1405
     33 H9        -10.9452   -5.5696    2.7378 H         1 <0>         0.1432
     34 H10        -8.9840   -4.3565    1.8789 H         1 <0>         0.1630
     35 H11       -11.2600   -7.1335    5.2743 H         1 <0>         0.2230
     36 H12        -2.4800   -0.0211   -0.9326 H         1 <0>         0.2332
     37 H13        -0.8382    1.9264   -1.5098 H         1 <0>         0.0931
     38 H14        -1.2150    2.6556    0.0885 H         1 <0>         0.1110
     39 H15         1.5176    2.3721   -1.2868 H         1 <0>         0.0944
     40 H16         0.8453    3.7963   -0.4242 H         1 <0>         0.1018
     41 H17         1.3616    2.9190    1.6704 H         1 <0>         0.0945
     42 H18         2.5374    1.9256    0.7689 H         1 <0>         0.0891
@<TRIPOS>BOND
     1    1    6 ar
     2    1    2 ar
     3    1   26 1
     4    2    3 ar
     5    2   27 1
     6    3    4 ar
     7    3   17 1
     8    4    5 ar
     9    4   28 1
    10    5    6 ar
    11    5   29 1
    12    6    7 1
    13    7    8 2
    14    7    9 am
    15    9   10 1
    16    9   30 1
    17   10   15 ar
    18   10   11 ar
    19   11   12 ar
    20   11   31 1
    21   12   13 ar
    22   12   32 1
    23   13   14 ar
    24   13   16 1
    25   14   15 ar
    26   14   33 1
    27   15   34 1
    28   16   35 1
    29   17   18 am
    30   17   36 1
    31   18   19 2
    32   18   20 1
    33   20   21 1
    34   20   25 1
    35   20   22 1
    36   22   23 1
    37   22   37 1
    38   22   38 1
    39   23   24 1
    40   23   39 1
    41   23   40 1
    42   24   25 1
    43   24   41 1
    44   24   42 1
@<TRIPOS>MOLECULE
ZINC02881801
   40    41     0     0     0
SMALL
USER_CHARGES

@<TRIPOS>ATOM
      1 C1          4.6075  -10.0054    1.4784 C.3       1 <0>        -0.1698
      2 C2          4.3798   -8.5894    1.0157 C.ar      1 <0>        -0.1112
      3 C3          5.4370   -7.8452    0.5255 C.ar      1 <0>        -0.0903
      4 C4          5.2309   -6.5469    0.1007 C.ar      1 <0>        -0.1466
      5 C5          3.9620   -5.9900    0.1663 C.ar      1 <0>         0.0891
      6 C6          2.9041   -6.7369    0.6639 C.ar      1 <0>        -0.2252
      7 C7          3.1143   -8.0365    1.0825 C.ar      1 <0>        -0.0885
      8 O1          3.7567   -4.7130   -0.2510 O.3       1 <0>        -0.1759
      9 C8          2.4091   -4.2378   -0.2468 C.3       1 <0>         0.0080
     10 H1          1.8786   -4.6573    0.6080 H         1 <0>         0.1028
     11 C9          1.7129   -4.6672   -1.5399 C.3       1 <0>        -0.2385
     12 C10         2.4070   -2.7339   -0.1506 C.2       1 <0>         0.3019
     13 O2          3.4540   -2.1228   -0.1829 O.2       1 <0>        -0.3132
     14 N1          1.2415   -2.0681   -0.0287 N.am      1 <0>        -0.3291
     15 C11         1.2320   -0.6737   -0.0276 C.ar      1 <0>         0.0847
     16 C12         2.2786    0.0271    0.5634 C.ar      1 <0>        -0.1390
     17 C13         2.2725    1.4038    0.5659 C.ar      1 <0>        -0.0473
     18 C14         1.2136    2.0973   -0.0262 C.ar      1 <0>        -0.1475
     19 C15         0.1642    1.3903   -0.6194 C.ar      1 <0>        -0.0881
     20 C16         0.1762    0.0137   -0.6180 C.ar      1 <0>        -0.1730
     21 C17         1.2035    3.5733   -0.0251 C.2       1 <0>         0.3510
     22 O3          2.1172    4.1870    0.4914 O.2       1 <0>        -0.3679
     23 N2          0.1815    4.2406   -0.5965 N.am      1 <0>        -0.4300
     24 H2          4.8614  -10.0049    2.5384 H         1 <0>         0.0851
     25 H3          3.7001  -10.5889    1.3225 H         1 <0>         0.0793
     26 H4          5.4255  -10.4467    0.9090 H         1 <0>         0.0810
     27 H5          6.4246   -8.2793    0.4743 H         1 <0>         0.1366
     28 H6          6.0569   -5.9661   -0.2824 H         1 <0>         0.1487
     29 H7          1.9162   -6.3041    0.7201 H         1 <0>         0.1298
     30 H8          2.2902   -8.6199    1.4658 H         1 <0>         0.1304
     31 H9          0.6849   -4.3047   -1.5367 H         1 <0>         0.0779
     32 H10         2.2434   -4.2477   -2.3947 H         1 <0>         0.1064
     33 H11         1.7144   -5.7549   -1.6094 H         1 <0>         0.0977
     34 H12         0.4094   -2.5588    0.0582 H         1 <0>         0.2322
     35 H13         3.0968   -0.5095    1.0205 H         1 <0>         0.1726
     36 H14         3.0830    1.9471    1.0288 H         1 <0>         0.1635
     37 H15        -0.6553    1.9233   -1.0785 H         1 <0>         0.1258
     38 H16        -0.6346   -0.5333   -1.0759 H         1 <0>         0.1310
     39 H17        -0.5475    3.7510   -1.0086 H         1 <0>         0.2143
     40 H18         0.1749    5.2106   -0.5957 H         1 <0>         0.2311
@<TRIPOS>BOND
     1    1    2 1
     2    1   24 1
     3    1   25 1
     4    1   26 1
     5    2    7 ar
     6    2    3 ar
     7    3    4 ar
     8    3   27 1
     9    4    5 ar
    10    4   28 1
    11    5    6 ar
    12    5    8 1
    13    6    7 ar
    14    6   29 1
    15    7   30 1
    16    8    9 1
    17    9   10 1
    18    9   11 1
    19    9   12 1
    20   11   31 1
    21   11   32 1
    22   11   33 1
    23   12   13 2
    24   12   14 am
    25   14   15 1
    26   14   34 1
    27   15   20 ar
    28   15   16 ar
    29   16   17 ar
    30   16   35 1
    31   17   18 ar
    32   17   36 1
    33   18   19 ar
    34   18   21 1
    35   19   20 ar
    36   19   37 1
    37   20   38 1
    38   21   22 2
    39   21   23 am
    40   23   39 1
    41   23   40 1
@<TRIPOS>MOLECULE
ZINC02883110
   48    51     0     0     0
SMALL
USER_CHARGES

@<TRIPOS>ATOM
      1 C1         -5.2675   -1.7134   -3.2277 C.3       1 <0>        -0.1758
      2 C2         -4.7618   -0.6246   -2.3167 C.ar      1 <0>        -0.0885
      3 C3         -3.5522   -0.0146   -2.5799 C.ar      1 <0>        -0.0974
      4 C4         -3.0836    0.9927   -1.7377 C.ar      1 <0>        -0.0645
      5 C5         -3.8426    1.3747   -0.6253 C.ar      1 <0>         0.0970
      6 C6         -5.0575    0.7575   -0.3776 C.ar      1 <0>        -0.1550
      7 C7         -5.5123   -0.2402   -1.2197 C.ar      1 <0>        -0.0513
      8 C8         -6.8318   -0.9127   -0.9411 C.3       1 <0>        -0.1796
      9 O1         -3.3920    2.3509    0.2049 O.3       1 <0>        -0.2737
     10 C9         -1.7877    1.6504   -2.0148 C.2       1 <0>        -0.0276
     11 C10        -0.6712    1.6003   -1.2429 C.2       1 <0>        -0.1872
     12 C11         0.3011    2.3757   -1.9144 C.2       1 <0>        -0.1744
     13 N1         -0.2648    2.8327   -3.0136 N.2       1 <0>        -0.0149
     14 N2         -1.4812    2.4253   -3.0967 N.pl3     1 <0>        -0.1122
     15 H1         -2.1099    2.6435   -3.8431 H         1 <0>         0.2908
     16 C12         1.5356    2.3498   -1.1092 C.2       1 <0>         0.3978
     17 O2          2.5683    2.9191   -1.4047 O.2       1 <0>        -0.3207
     18 N3          1.3586    1.6084   -0.0023 N.am      1 <0>        -0.3434
     19 C13        -0.0127    1.0858    0.0080 C.3       1 <0>         0.1527
     20 H2          0.0021   -0.0041    0.0020 H         1 <0>         0.1074
     21 C14        -0.7480    1.5862    1.2246 C.ar      1 <0>        -0.0844
     22 C15        -0.5348    2.8738    1.6800 C.ar      1 <0>        -0.1062
     23 C16        -1.2122    3.3341    2.7936 C.ar      1 <0>        -0.1322
     24 C17        -2.0963    2.5039    3.4569 C.ar      1 <0>        -0.1248
     25 C18        -2.3060    1.2147    3.0043 C.ar      1 <0>        -0.1239
     26 C19        -1.6315    0.7557    1.8884 C.ar      1 <0>        -0.1036
     27 C20         2.3709    1.3618    1.0276 C.3       1 <0>         0.0248
     28 C21         3.1648    0.1034    0.6714 C.3       1 <0>        -0.0257
     29 O3          3.8988    0.3284   -0.5339 O.3       1 <0>        -0.3327
     30 H3         -4.9093   -2.6797   -2.8727 H         1 <0>         0.0898
     31 H4         -6.3574   -1.7083   -3.2299 H         1 <0>         0.0865
     32 H5         -4.9013   -1.5396   -4.2396 H         1 <0>         0.0817
     33 H6         -2.9692   -0.3173   -3.4371 H         1 <0>         0.1391
     34 H7         -5.6482    1.0529    0.4769 H         1 <0>         0.1452
     35 H8         -6.6700   -1.7785   -0.2989 H         1 <0>         0.0915
     36 H9         -7.4995   -0.2102   -0.4424 H         1 <0>         0.0838
     37 H10        -7.2804   -1.2359   -1.8805 H         1 <0>         0.0878
     38 H11        -3.6744    3.2413   -0.0452 H         1 <0>         0.2288
     39 H12         0.1588    3.5212    1.1640 H         1 <0>         0.1384
     40 H13        -1.0481    4.3412    3.1475 H         1 <0>         0.1276
     41 H14        -2.6231    2.8624    4.3290 H         1 <0>         0.1248
     42 H15        -2.9965    0.5659    3.5227 H         1 <0>         0.1255
     43 H16        -1.7950   -0.2517    1.5350 H         1 <0>         0.1266
     44 H17         3.0475    2.2146    1.0835 H         1 <0>         0.1226
     45 H18         1.8819    1.2222    1.9917 H         1 <0>         0.1013
     46 H19         3.8572   -0.1304    1.4801 H         1 <0>         0.0621
     47 H20         2.4782   -0.7310    0.5283 H         1 <0>         0.0593
     48 H21         4.4266   -0.4295   -0.8204 H         1 <0>         0.2068
@<TRIPOS>BOND
     1    1    2 1
     2    1   30 1
     3    1   31 1
     4    1   32 1
     5    2    7 ar
     6    2    3 ar
     7    3    4 ar
     8    3   33 1
     9    4    5 ar
    10    4   10 1
    11    5    6 ar
    12    5    9 1
    13    6    7 ar
    14    6   34 1
    15    7    8 1
    16    8   35 1
    17    8   36 1
    18    8   37 1
    19    9   38 1
    20   10   14 1
    21   10   11 2
    22   11   19 1
    23   11   12 1
    24   12   13 2
    25   12   16 1
    26   13   14 1
    27   14   15 1
    28   16   17 2
    29   16   18 am
    30   18   19 1
    31   18   27 1
    32   19   20 1
    33   19   21 1
    34   21   26 ar
    35   21   22 ar
    36   22   23 ar
    37   22   39 1
    38   23   24 ar
    39   23   40 1
    40   24   25 ar
    41   24   41 1
    42   25   26 ar
    43   25   42 1
    44   26   43 1
    45   27   28 1
    46   27   44 1
    47   27   45 1
    48   28   29 1
    49   28   46 1
    50   28   47 1
    51   29   48 1
@<TRIPOS>MOLECULE
ZINC02883110
   48    51     0     0     0
SMALL
USER_CHARGES

@<TRIPOS>ATOM
      1 C1         -5.2675   -1.7134   -3.2277 C.3       1 <0>        -0.1748
      2 C2         -4.7618   -0.6246   -2.3167 C.ar      1 <0>        -0.0906
      3 C3         -3.5522   -0.0146   -2.5799 C.ar      1 <0>        -0.0860
      4 C4         -3.0836    0.9927   -1.7377 C.ar      1 <0>        -0.0335
      5 C5         -3.8426    1.3747   -0.6253 C.ar      1 <0>         0.0895
      6 C6         -5.0575    0.7575   -0.3776 C.ar      1 <0>        -0.1563
      7 C7         -5.5123   -0.2402   -1.2197 C.ar      1 <0>        -0.0565
      8 C8         -6.8318   -0.9127   -0.9411 C.3       1 <0>        -0.1781
      9 O1         -3.3920    2.3509    0.2049 O.3       1 <0>        -0.2797
     10 C9         -1.7877    1.6504   -2.0148 C.2       1 <0>        -0.0253
     11 C10        -0.6714    1.6009   -1.2425 C.2       1 <0>        -0.1687
     12 C11         0.3007    2.3766   -1.9138 C.2       1 <0>        -0.2064
     13 N1         -0.2648    2.8327   -3.0136 N.pl3     1 <0>        -0.0054
     14 N2         -1.4812    2.4253   -3.0967 N.2       1 <0>        -0.1044
     15 H1          0.1889    3.4142   -3.6889 H         1 <0>         0.2928
     16 C12         1.5350    2.3514   -1.1082 C.2       1 <0>         0.3893
     17 O2          2.5675    2.9211   -1.4035 O.2       1 <0>        -0.3419
     18 N3          1.3580    1.6100   -0.0013 N.am      1 <0>        -0.3347
     19 C13        -0.0131    1.0868    0.0086 C.3       1 <0>         0.1439
     20 H2          0.0022   -0.0031    0.0028 H         1 <0>         0.1109
     21 C14        -0.7490    1.5871    1.2249 C.ar      1 <0>        -0.0832
     22 C15        -0.5365    2.8748    1.6802 C.ar      1 <0>        -0.1075
     23 C16        -1.2145    3.3350    2.7936 C.ar      1 <0>        -0.1317
     24 C17        -2.0984    2.5044    3.4567 C.ar      1 <0>        -0.1233
     25 C18        -2.3074    1.2151    3.0042 C.ar      1 <0>        -0.1217
     26 C19        -1.6323    0.7563    1.8886 C.ar      1 <0>        -0.1003
     27 C20         2.3701    1.3640    1.0290 C.3       1 <0>         0.0226
     28 C21         3.1646    0.1059    0.6732 C.3       1 <0>        -0.0256
     29 O3          3.8989    0.3311   -0.5319 O.3       1 <0>        -0.3354
     30 H3         -4.9093   -2.6797   -2.8727 H         1 <0>         0.0856
     31 H4         -6.3574   -1.7083   -3.2299 H         1 <0>         0.0848
     32 H5         -4.9013   -1.5396   -4.2396 H         1 <0>         0.0827
     33 H6         -2.9692   -0.3173   -3.4371 H         1 <0>         0.1423
     34 H7         -5.6482    1.0529    0.4769 H         1 <0>         0.1415
     35 H8         -6.6700   -1.7785   -0.2989 H         1 <0>         0.0879
     36 H9         -7.4995   -0.2102   -0.4424 H         1 <0>         0.0819
     37 H10        -7.2804   -1.2359   -1.8805 H         1 <0>         0.0868
     38 H11        -3.6744    3.2413   -0.0452 H         1 <0>         0.2284
     39 H12         0.1570    3.5225    1.1644 H         1 <0>         0.1345
     40 H13        -1.0509    4.3422    3.1474 H         1 <0>         0.1271
     41 H14        -2.6256    2.8628    4.3286 H         1 <0>         0.1253
     42 H15        -2.9978    0.5661    3.5225 H         1 <0>         0.1267
     43 H16        -1.7953   -0.2513    1.5352 H         1 <0>         0.1279
     44 H17         3.0463    2.2171    1.0850 H         1 <0>         0.1223
     45 H18         1.8808    1.2243    1.9929 H         1 <0>         0.1042
     46 H19         3.8569   -0.1275    1.4821 H         1 <0>         0.0638
     47 H20         2.4784   -0.7288    0.5299 H         1 <0>         0.0610
     48 H21         4.4271   -0.4266   -0.8182 H         1 <0>         0.2077
@<TRIPOS>BOND
     1    1    2 1
     2    1   30 1
     3    1   31 1
     4    1   32 1
     5    2    7 ar
     6    2    3 ar
     7    3    4 ar
     8    3   33 1
     9    4    5 ar
    10    4   10 1
    11    5    6 ar
    12    5    9 1
    13    6    7 ar
    14    6   34 1
    15    7    8 1
    16    8   35 1
    17    8   36 1
    18    8   37 1
    19    9   38 1
    20   10   11 1
    21   10   14 2
    22   11   19 1
    23   11   12 2
    24   12   16 1
    25   12   13 1
    26   13   15 1
    27   13   14 1
    28   16   17 2
    29   16   18 am
    30   18   19 1
    31   18   27 1
    32   19   20 1
    33   19   21 1
    34   21   26 ar
    35   21   22 ar
    36   22   23 ar
    37   22   39 1
    38   23   24 ar
    39   23   40 1
    40   24   25 ar
    41   24   41 1
    42   25   26 ar
    43   25   42 1
    44   26   43 1
    45   27   28 1
    46   27   44 1
    47   27   45 1
    48   28   29 1
    49   28   46 1
    50   28   47 1
    51   29   48 1
@<TRIPOS>MOLECULE
ZINC02883111
   48    51     0     0     0
SMALL
USER_CHARGES

@<TRIPOS>ATOM
      1 C1          6.2037    2.5827    0.5480 C.3       1 <0>        -0.1762
      2 C2          4.8162    2.0355    0.3325 C.ar      1 <0>        -0.0860
      3 C3          3.9543    1.9062    1.4026 C.ar      1 <0>        -0.0932
      4 C4          2.6682    1.4063    1.2032 C.ar      1 <0>        -0.0619
      5 C5          2.2640    1.0267   -0.0821 C.ar      1 <0>         0.0955
      6 C6          3.1403    1.1619   -1.1461 C.ar      1 <0>        -0.1537
      7 C7          4.4111    1.6650   -0.9376 C.ar      1 <0>        -0.0504
      8 C8          5.3599    1.8102   -2.0993 C.3       1 <0>        -0.1796
      9 O1          1.0151    0.5329   -0.2860 O.3       1 <0>        -0.2841
     10 C9          1.7374    1.2720    2.3452 C.2       1 <0>        -0.0095
     11 C10         1.2392    0.1153    2.8539 C.2       1 <0>        -0.2098
     12 C11         0.4024    0.4918    3.9289 C.2       1 <0>        -0.1753
     13 N1          0.4427    1.8071    4.0041 N.2       1 <0>        -0.0125
     14 N2          1.2168    2.2866    3.0966 N.pl3     1 <0>        -0.1033
     15 H1          1.4092    3.2585    2.9610 H         1 <0>         0.2944
     16 C12        -0.1629   -0.7374    4.5141 C.2       1 <0>         0.3947
     17 O2         -0.9262   -0.7676    5.4598 O.2       1 <0>        -0.3453
     18 N3          0.2846   -1.8199    3.8552 N.am      1 <0>        -0.3360
     19 C13         1.1839   -1.3861    2.7797 C.3       1 <0>         0.1569
     20 H2          0.7901   -1.6987    1.8126 H         1 <0>         0.1171
     21 C14         2.5590   -1.9656    2.9898 C.ar      1 <0>        -0.0933
     22 C15         3.1206   -1.9724    4.2529 C.ar      1 <0>        -0.1065
     23 C16         4.3803   -2.5079    4.4464 C.ar      1 <0>        -0.1297
     24 C17         5.0821   -3.0283    3.3751 C.ar      1 <0>        -0.1250
     25 C18         4.5226   -3.0167    2.1111 C.ar      1 <0>        -0.1287
     26 C19         3.2612   -2.4851    1.9184 C.ar      1 <0>        -0.1152
     27 C20        -0.0682   -3.2084    4.1612 C.3       1 <0>         0.0253
     28 C21        -1.3835   -3.5656    3.4659 C.3       1 <0>        -0.0278
     29 O3         -1.1968   -3.5358    2.0494 O.3       1 <0>        -0.3609
     30 H3          6.1886    3.6666    0.4338 H         1 <0>         0.0875
     31 H4          6.5429    2.3279    1.5520 H         1 <0>         0.0840
     32 H5          6.8832    2.1495   -0.1860 H         1 <0>         0.0871
     33 H6          4.2741    2.1964    2.3925 H         1 <0>         0.1396
     34 H7          2.8305    0.8742   -2.1399 H         1 <0>         0.1449
     35 H8          5.2391    2.7971   -2.5460 H         1 <0>         0.0913
     36 H9          6.3851    1.6934   -1.7479 H         1 <0>         0.0882
     37 H10         5.1418    1.0450   -2.8444 H         1 <0>         0.0838
     38 H11         0.9537   -0.4285   -0.2017 H         1 <0>         0.2323
     39 H12         2.5738   -1.5624    5.0892 H         1 <0>         0.1409
     40 H13         4.8172   -2.5173    5.4340 H         1 <0>         0.1314
     41 H14         6.0673   -3.4443    3.5258 H         1 <0>         0.1289
     42 H15         5.0709   -3.4233    1.2741 H         1 <0>         0.1296
     43 H16         2.8241   -2.4761    0.9308 H         1 <0>         0.1262
     44 H17         0.7216   -3.8706    3.8067 H         1 <0>         0.1074
     45 H18        -0.1837   -3.3250    5.2388 H         1 <0>         0.1159
     46 H19        -1.6959   -4.5645    3.7703 H         1 <0>         0.0654
     47 H20        -2.1505   -2.8437    3.7465 H         1 <0>         0.0831
     48 H21        -1.9917   -3.7529    1.5433 H         1 <0>         0.2123
@<TRIPOS>BOND
     1    1    2 1
     2    1   30 1
     3    1   31 1
     4    1   32 1
     5    2    7 ar
     6    2    3 ar
     7    3    4 ar
     8    3   33 1
     9    4    5 ar
    10    4   10 1
    11    5    6 ar
    12    5    9 1
    13    6    7 ar
    14    6   34 1
    15    7    8 1
    16    8   35 1
    17    8   36 1
    18    8   37 1
    19    9   38 1
    20   10   14 1
    21   10   11 2
    22   11   19 1
    23   11   12 1
    24   12   13 2
    25   12   16 1
    26   13   14 1
    27   14   15 1
    28   16   17 2
    29   16   18 am
    30   18   19 1
    31   18   27 1
    32   19   20 1
    33   19   21 1
    34   21   26 ar
    35   21   22 ar
    36   22   23 ar
    37   22   39 1
    38   23   24 ar
    39   23   40 1
    40   24   25 ar
    41   24   41 1
    42   25   26 ar
    43   25   42 1
    44   26   43 1
    45   27   28 1
    46   27   44 1
    47   27   45 1
    48   28   29 1
    49   28   46 1
    50   28   47 1
    51   29   48 1
@<TRIPOS>MOLECULE
ZINC02883111
   48    51     0     0     0
SMALL
USER_CHARGES

@<TRIPOS>ATOM
      1 C1          6.2038    2.5826    0.5481 C.3       1 <0>        -0.1749
      2 C2          4.8163    2.0354    0.3326 C.ar      1 <0>        -0.0877
      3 C3          3.9544    1.9062    1.4027 C.ar      1 <0>        -0.0824
      4 C4          2.6683    1.4063    1.2032 C.ar      1 <0>        -0.0299
      5 C5          2.2641    1.0267   -0.0821 C.ar      1 <0>         0.0872
      6 C6          3.1404    1.1619   -1.1461 C.ar      1 <0>        -0.1545
      7 C7          4.4112    1.6650   -0.9375 C.ar      1 <0>        -0.0561
      8 C8          5.3600    1.8102   -2.0992 C.3       1 <0>        -0.1781
      9 O1          1.0151    0.5330   -0.2860 O.3       1 <0>        -0.2840
     10 C9          1.7374    1.2720    2.3452 C.2       1 <0>        -0.0127
     11 C10         1.2345    0.1157    2.8501 C.2       1 <0>        -0.1849
     12 C11         0.3950    0.4924    3.9229 C.2       1 <0>        -0.2081
     13 N1          0.4427    1.8071    4.0041 N.pl3     1 <0>        -0.0037
     14 N2          1.2169    2.2866    3.0967 N.2       1 <0>        -0.0906
     15 H1         -0.0537    2.3549    4.6775 H         1 <0>         0.2929
     16 C12        -0.1755   -0.7364    4.5040 C.2       1 <0>         0.3851
     17 O2         -0.9421   -0.7663    5.4470 O.2       1 <0>        -0.3663
     18 N3          0.2715   -1.8188    3.8447 N.am      1 <0>        -0.3269
     19 C13         1.1756   -1.3854    2.7731 C.3       1 <0>         0.1469
     20 H2          0.7844   -1.6953    1.8041 H         1 <0>         0.1219
     21 C14         2.5485   -1.9688    2.9869 C.ar      1 <0>        -0.0924
     22 C15         3.1058   -1.9793    4.2519 C.ar      1 <0>        -0.1075
     23 C16         4.3634   -2.5183    4.4488 C.ar      1 <0>        -0.1293
     24 C17         5.0676   -3.0386    3.3790 C.ar      1 <0>        -0.1235
     25 C18         4.5125   -3.0234    2.1131 C.ar      1 <0>        -0.1271
     26 C19         3.2531   -2.4882    1.9170 C.ar      1 <0>        -0.1124
     27 C20        -0.0858   -3.2070    4.1471 C.3       1 <0>         0.0229
     28 C21        -1.3996   -3.5596    3.4466 C.3       1 <0>        -0.0271
     29 O3         -1.2080   -3.5278    2.0308 O.3       1 <0>        -0.3600
     30 H3          6.1887    3.6665    0.4339 H         1 <0>         0.0880
     31 H4          6.5430    2.3278    1.5521 H         1 <0>         0.0818
     32 H5          6.8833    2.1494   -0.1859 H         1 <0>         0.0836
     33 H6          4.2742    2.1963    2.3926 H         1 <0>         0.1429
     34 H7          2.8306    0.8743   -2.1399 H         1 <0>         0.1414
     35 H8          5.2392    2.7971   -2.5459 H         1 <0>         0.0901
     36 H9          6.3852    1.6933   -1.7478 H         1 <0>         0.0860
     37 H10         5.1419    1.0450   -2.8443 H         1 <0>         0.0807
     38 H11         0.9537   -0.4284   -0.2017 H         1 <0>         0.2252
     39 H12         2.5571   -1.5694    5.0870 H         1 <0>         0.1370
     40 H13         4.7969   -2.5306    5.4379 H         1 <0>         0.1311
     41 H14         6.0512   -3.4574    3.5323 H         1 <0>         0.1295
     42 H15         5.0626   -3.4299    1.2773 H         1 <0>         0.1309
     43 H16         2.8194   -2.4764    0.9279 H         1 <0>         0.1280
     44 H17         0.7035   -3.8706    3.7941 H         1 <0>         0.1102
     45 H18        -0.2053   -3.3252    5.2240 H         1 <0>         0.1155
     46 H19        -1.7156   -4.5582    3.7482 H         1 <0>         0.0667
     47 H20        -2.1658   -2.8362    3.7258 H         1 <0>         0.0812
     48 H21        -2.0017   -3.7420    1.5216 H         1 <0>         0.2135
@<TRIPOS>BOND
     1    1    2 1
     2    1   30 1
     3    1   31 1
     4    1   32 1
     5    2    7 ar
     6    2    3 ar
     7    3    4 ar
     8    3   33 1
     9    4    5 ar
    10    4   10 1
    11    5    6 ar
    12    5    9 1
    13    6    7 ar
    14    6   34 1
    15    7    8 1
    16    8   35 1
    17    8   36 1
    18    8   37 1
    19    9   38 1
    20   10   11 1
    21   10   14 2
    22   11   19 1
    23   11   12 2
    24   12   16 1
    25   12   13 1
    26   13   15 1
    27   13   14 1
    28   16   17 2
    29   16   18 am
    30   18   19 1
    31   18   27 1
    32   19   20 1
    33   19   21 1
    34   21   26 ar
    35   21   22 ar
    36   22   23 ar
    37   22   39 1
    38   23   24 ar
    39   23   40 1
    40   24   25 ar
    41   24   41 1
    42   25   26 ar
    43   25   42 1
    44   26   43 1
    45   27   28 1
    46   27   44 1
    47   27   45 1
    48   28   29 1
    49   28   46 1
    50   28   47 1
    51   29   48 1
@<TRIPOS>MOLECULE
ZINC02884767
   43    45     0     0     0
SMALL
USER_CHARGES

@<TRIPOS>ATOM
      1 C1         -1.3118    1.8618   -0.9082 C.3       1 <0>        -0.2120
      2 C2         -0.4263    1.3556    0.2323 C.3       1 <0>        -0.0186
      3 O1         -1.0987    1.5474    1.4785 O.3       1 <0>        -0.2075
      4 C3         -0.4443    1.1478    2.6005 C.ar      1 <0>         0.1548
      5 C4          0.8193    0.5827    2.5040 C.ar      1 <0>        -0.2422
      6 C5          1.4823    0.1773    3.6459 C.ar      1 <0>         0.0632
      7 C6          0.8877    0.3339    4.8845 C.ar      1 <0>        -0.7910
      8 C7         -0.3710    0.8971    4.9834 C.ar      1 <0>         0.0122
      9 C8         -1.0360    1.3095    3.8447 C.ar      1 <0>        -0.1311
     10 C9         -2.4056    1.9286    3.9537 C.3       1 <0>        -0.1639
     11 S1          1.7359   -0.1847    6.3392 S.o2      1 <0>         2.7726
     12 O2          3.0431    0.3677    6.2659 O.2       1 <0>        -0.9154
     13 O3          0.8621    0.0683    7.4309 O.2       1 <0>        -0.9217
     14 N1          1.9108   -1.8287    6.2442 N.pl3     1 <0>        -0.8183
     15 C10         0.7818   -2.6489    6.1865 C.ar      1 <0>         0.0911
     16 C11        -0.2732   -2.4242    7.0834 C.ar      1 <0>        -0.1927
     17 C12        -1.3942   -3.1855    7.0679 C.ar      1 <0>        -0.0399
     18 C13        -1.5084   -4.2412    6.1375 C.ar      1 <0>        -0.2023
     19 C14        -2.4751   -5.1882    5.8549 C.2       1 <0>        -0.0797
     20 N2         -2.0262   -5.9472    4.8461 N.pl3     1 <0>        -0.1348
     21 H1         -2.5245   -6.7119    4.4375 H         1 <0>         0.2813
     22 N3         -0.7569   -5.5117    4.4487 N.2       1 <0>        -0.0979
     23 C15        -0.4017   -4.4841    5.1989 C.ar      1 <0>        -0.0224
     24 C16         0.7350   -3.6510    5.2640 C.ar      1 <0>        -0.1351
     25 C17         2.8546   -0.4366    3.5418 C.3       1 <0>        -0.1926
     26 H2         -2.2505    1.3077   -0.9127 H         1 <0>         0.0892
     27 H3         -1.5168    2.9227   -0.7655 H         1 <0>         0.0894
     28 H4         -0.7989    1.7155   -1.8588 H         1 <0>         0.0886
     29 H5         -0.2213    0.2946    0.0896 H         1 <0>         0.0778
     30 H6          0.5123    1.9096    0.2368 H         1 <0>         0.0777
     31 H7          1.2838    0.4595    1.5368 H         1 <0>         0.1403
     32 H8         -0.8331    1.0187    5.9520 H         1 <0>         0.1597
     33 H9         -3.1632    1.1469    3.8976 H         1 <0>         0.0857
     34 H10        -2.4931    2.4518    4.9059 H         1 <0>         0.0805
     35 H11        -2.5512    2.6349    3.1363 H         1 <0>         0.0929
     36 H12         2.7973   -2.2220    6.2286 H         1 <0>         0.2524
     37 H13        -0.1921   -1.6214    7.8012 H         1 <0>         0.1776
     38 H14        -2.1938   -2.9888    7.7667 H         1 <0>         0.1330
     39 H15        -3.4246   -5.2967    6.3579 H         1 <0>         0.1749
     40 H16         1.5625   -3.8065    4.5876 H         1 <0>         0.1422
     41 H17         3.6053    0.3535    3.5185 H         1 <0>         0.1160
     42 H18         3.0311   -1.0801    4.4037 H         1 <0>         0.0772
     43 H19         2.9202   -1.0271    2.6279 H         1 <0>         0.0894
@<TRIPOS>BOND
     1    1    2 1
     2    1   26 1
     3    1   27 1
     4    1   28 1
     5    2    3 1
     6    2   29 1
     7    2   30 1
     8    3    4 1
     9    4    9 ar
    10    4    5 ar
    11    5    6 ar
    12    5   31 1
    13    6    7 ar
    14    6   25 1
    15    7    8 ar
    16    7   11 1
    17    8    9 ar
    18    8   32 1
    19    9   10 1
    20   10   33 1
    21   10   34 1
    22   10   35 1
    23   11   12 2
    24   11   13 2
    25   11   14 1
    26   14   15 1
    27   14   36 1
    28   15   24 ar
    29   15   16 ar
    30   16   17 ar
    31   16   37 1
    32   17   18 ar
    33   17   38 1
    34   18   23 ar
    35   18   19 2
    36   19   20 1
    37   19   39 1
    38   20   21 1
    39   20   22 1
    40   22   23 2
    41   23   24 ar
    42   24   40 1
    43   25   41 1
    44   25   42 1
    45   25   43 1
@<TRIPOS>MOLECULE
ZINC02884767
   43    45     0     0     0
SMALL
USER_CHARGES

@<TRIPOS>ATOM
      1 C1         -1.3118    1.8618   -0.9082 C.3       1 <0>        -0.2121
      2 C2         -0.4263    1.3556    0.2323 C.3       1 <0>        -0.0185
      3 O1         -1.0987    1.5474    1.4785 O.3       1 <0>        -0.2064
      4 C3         -0.4443    1.1478    2.6005 C.ar      1 <0>         0.1553
      5 C4          0.8193    0.5827    2.5040 C.ar      1 <0>        -0.2434
      6 C5          1.4823    0.1773    3.6459 C.ar      1 <0>         0.0609
      7 C6          0.8877    0.3339    4.8845 C.ar      1 <0>        -0.7917
      8 C7         -0.3710    0.8971    4.9834 C.ar      1 <0>         0.0126
      9 C8         -1.0360    1.3095    3.8447 C.ar      1 <0>        -0.1296
     10 C9         -2.4056    1.9286    3.9537 C.3       1 <0>        -0.1645
     11 S1          1.7359   -0.1847    6.3392 S.o2      1 <0>         2.7719
     12 O2          3.0431    0.3677    6.2659 O.2       1 <0>        -0.9139
     13 O3          0.8621    0.0683    7.4309 O.2       1 <0>        -0.9189
     14 N1          1.9108   -1.8287    6.2442 N.pl3     1 <0>        -0.8194
     15 C10         0.7818   -2.6489    6.1865 C.ar      1 <0>         0.1123
     16 C11        -0.2732   -2.4242    7.0834 C.ar      1 <0>        -0.2075
     17 C12        -1.3942   -3.1855    7.0679 C.ar      1 <0>        -0.0277
     18 C13        -1.5084   -4.2412    6.1375 C.ar      1 <0>        -0.1941
     19 C14        -2.4749   -5.1885    5.8552 C.2       1 <0>        -0.1037
     20 N2         -2.0259   -5.9476    4.8466 N.2       1 <0>        -0.0712
     21 H1         -0.2077   -5.9137    3.7161 H         1 <0>         0.2823
     22 N3         -0.7567   -5.5120    4.4490 N.pl3     1 <0>        -0.1694
     23 C15        -0.4017   -4.4841    5.1989 C.ar      1 <0>         0.0191
     24 C16         0.7350   -3.6510    5.2640 C.ar      1 <0>        -0.1891
     25 C17         2.8546   -0.4366    3.5418 C.3       1 <0>        -0.1923
     26 H2         -2.2505    1.3077   -0.9127 H         1 <0>         0.0899
     27 H3         -1.5168    2.9227   -0.7655 H         1 <0>         0.0901
     28 H4         -0.7989    1.7155   -1.8588 H         1 <0>         0.0888
     29 H5         -0.2213    0.2946    0.0896 H         1 <0>         0.0764
     30 H6          0.5123    1.9096    0.2368 H         1 <0>         0.0779
     31 H7          1.2838    0.4595    1.5368 H         1 <0>         0.1399
     32 H8         -0.8331    1.0187    5.9520 H         1 <0>         0.1607
     33 H9         -3.1632    1.1469    3.8976 H         1 <0>         0.0870
     34 H10        -2.4931    2.4518    4.9059 H         1 <0>         0.0813
     35 H11        -2.5512    2.6349    3.1363 H         1 <0>         0.0934
     36 H12         2.7973   -2.2220    6.2286 H         1 <0>         0.2522
     37 H13        -0.1921   -1.6214    7.8012 H         1 <0>         0.1791
     38 H14        -2.1938   -2.9888    7.7667 H         1 <0>         0.1389
     39 H15        -3.4241   -5.2974    6.3586 H         1 <0>         0.1905
     40 H16         1.5625   -3.8065    4.5876 H         1 <0>         0.1325
     41 H17         3.6053    0.3535    3.5185 H         1 <0>         0.1174
     42 H18         3.0311   -1.0801    4.4037 H         1 <0>         0.0760
     43 H19         2.9202   -1.0271    2.6279 H         1 <0>         0.0872
@<TRIPOS>BOND
     1    1    2 1
     2    1   26 1
     3    1   27 1
     4    1   28 1
     5    2    3 1
     6    2   29 1
     7    2   30 1
     8    3    4 1
     9    4    9 ar
    10    4    5 ar
    11    5    6 ar
    12    5   31 1
    13    6    7 ar
    14    6   25 1
    15    7    8 ar
    16    7   11 1
    17    8    9 ar
    18    8   32 1
    19    9   10 1
    20   10   33 1
    21   10   34 1
    22   10   35 1
    23   11   12 2
    24   11   13 2
    25   11   14 1
    26   14   15 1
    27   14   36 1
    28   15   24 ar
    29   15   16 ar
    30   16   17 ar
    31   16   37 1
    32   17   18 ar
    33   17   38 1
    34   18   19 1
    35   18   23 ar
    36   19   39 1
    37   19   20 2
    38   20   22 1
    39   21   22 1
    40   22   23 1
    41   23   24 ar
    42   24   40 1
    43   25   41 1
    44   25   42 1
    45   25   43 1
@<TRIPOS>MOLECULE
ZINC02884887
   42    44     0     0     0
SMALL
USER_CHARGES

@<TRIPOS>ATOM
      1 C1          3.8567   10.3931   -6.8077 C.3       1 <0>        -0.0620
      2 O1          4.0373    9.5530   -5.6660 O.3       1 <0>        -0.2109
      3 C2          3.5052    8.3032   -5.7288 C.ar      1 <0>         0.0610
      4 C3          2.8242    7.8966   -6.8676 C.ar      1 <0>        -0.1817
      5 C4          2.2806    6.6277   -6.9377 C.ar      1 <0>        -0.1843
      6 C5          2.4185    5.7528   -5.8730 C.ar      1 <0>         0.0627
      7 C6          3.0989    6.1586   -4.7221 C.ar      1 <0>        -0.0094
      8 C7          3.6442    7.4380   -4.6563 C.ar      1 <0>        -0.1108
      9 C8          3.2452    5.2270   -3.5761 C.2       1 <0>        -0.1810
     10 C9          2.7099    5.3884   -2.3321 C.2       1 <0>        -0.0311
     11 N1          3.0759    4.3257   -1.5865 N.pl3     1 <0>        -0.6191
     12 N2          3.8625    3.4815   -2.3794 N.2       1 <0>        -0.1220
     13 C10         3.9653    4.0103   -3.5745 C.2       1 <0>         0.1318
     14 N3          4.6674    3.4687   -4.6558 N.pl3     1 <0>        -0.3871
     15 S1          2.6701    4.0671   -0.0020 S.o2      1 <0>         2.7743
     16 O2          2.3869    5.3420    0.5580 O.2       1 <0>        -0.9012
     17 O3          3.6614    3.2022    0.5352 O.2       1 <0>        -0.8717
     18 C11         1.1563    3.1654    0.0076 C.ar      1 <0>        -0.7595
     19 C12         1.1750    1.7832    0.0004 C.ar      1 <0>        -0.0136
     20 C13        -0.0126    1.0758    0.0080 C.ar      1 <0>        -0.1514
     21 C14        -1.2190    1.7506    0.0173 C.ar      1 <0>        -0.0697
     22 C15        -1.2377    3.1328    0.0299 C.ar      1 <0>        -0.1514
     23 C16        -0.0501    3.8402    0.0228 C.ar      1 <0>        -0.0279
     24 O4          1.8884    4.5026   -5.9458 O.3       1 <0>        -0.2042
     25 C17         1.2064    4.1564   -7.1528 C.3       1 <0>        -0.0643
     26 H1          4.3282   11.3590   -6.6264 H         1 <0>         0.1093
     27 H2          4.3126    9.9241   -7.6797 H         1 <0>         0.0661
     28 H3          2.7914   10.5370   -6.9880 H         1 <0>         0.0665
     29 H4          2.7183    8.5742   -7.7019 H         1 <0>         0.1366
     30 H5          1.7510    6.3165   -7.8260 H         1 <0>         0.1372
     31 H6          4.1744    7.7552   -3.7705 H         1 <0>         0.1562
     32 H7          2.1023    6.2185   -2.0030 H         1 <0>         0.1915
     33 H8          4.6886    3.9382   -5.5044 H         1 <0>         0.2365
     34 H9          5.1333    2.6236   -4.5573 H         1 <0>         0.2308
     35 H10         2.1175    1.2560   -0.0115 H         1 <0>         0.1578
     36 H11         0.0021   -0.0041    0.0020 H         1 <0>         0.1383
     37 H12        -2.1469    1.1980    0.0188 H         1 <0>         0.1333
     38 H13        -2.1802    3.6600    0.0414 H         1 <0>         0.1367
     39 H14        -0.0647    4.9201    0.0288 H         1 <0>         0.1466
     40 H15         0.8333    3.1348   -7.0791 H         1 <0>         0.1097
     41 H16         0.3700    4.8384   -7.3060 H         1 <0>         0.0675
     42 H17         1.8955    4.2317   -7.9940 H         1 <0>         0.0641
@<TRIPOS>BOND
     1    1    2 1
     2    1   26 1
     3    1   27 1
     4    1   28 1
     5    2    3 1
     6    3    8 ar
     7    3    4 ar
     8    4    5 ar
     9    4   29 1
    10    5    6 ar
    11    5   30 1
    12    6    7 ar
    13    6   24 1
    14    7    8 ar
    15    7    9 1
    16    8   31 1
    17    9   13 1
    18    9   10 2
    19   10   11 1
    20   10   32 1
    21   11   12 1
    22   11   15 1
    23   12   13 2
    24   13   14 1
    25   14   33 1
    26   14   34 1
    27   15   16 2
    28   15   17 2
    29   15   18 1
    30   18   23 ar
    31   18   19 ar
    32   19   20 ar
    33   19   35 1
    34   20   21 ar
    35   20   36 1
    36   21   22 ar
    37   21   37 1
    38   22   23 ar
    39   22   38 1
    40   23   39 1
    41   24   25 1
    42   25   40 1
    43   25   41 1
    44   25   42 1
@<TRIPOS>MOLECULE
ZINC02889561
   41    43     0     0     0
SMALL
USER_CHARGES

@<TRIPOS>ATOM
      1 C1         -2.8473   -0.0248    0.0157 C.3       1 <0>        -0.1894
      2 C2         -2.6021    1.4621    0.0226 C.2       1 <0>         0.0347
      3 C3         -1.2956    1.9561    0.0187 C.2       1 <0>        -0.2522
      4 C4         -1.1699    3.3641    0.0298 C.2       1 <0>        -0.1102
      5 N1          0.0149    3.9612    0.0214 N.2       1 <0>        -0.1951
      6 C5          1.1262    3.2765    0.0080 C.2       1 <0>         0.1028
      7 N2          1.1326    1.9208    0.0016 N.am      1 <0>        -0.2556
      8 C6         -0.0144    1.2140    0.0087 C.2       1 <0>         0.3535
      9 O1          0.0021   -0.0041    0.0020 O.2       1 <0>        -0.3443
     10 C7          2.4133    1.2096   -0.0140 C.3       1 <0>        -0.0303
     11 C8          2.8457    0.9693   -1.4618 C.3       1 <0>        -0.1847
     12 C9          4.1832    0.2265   -1.4780 C.3       1 <0>        -0.0085
     13 O2          4.5870    0.0021   -2.8303 O.3       1 <0>        -0.2113
     14 C10         5.7632   -0.6511   -3.0226 C.ar      1 <0>         0.0958
     15 C11         6.5159   -1.0624   -1.9323 C.ar      1 <0>        -0.2211
     16 C12         7.7081   -1.7316   -2.1305 C.ar      1 <0>        -0.0887
     17 C13         8.1573   -1.9808   -3.4142 C.ar      1 <0>        -0.1648
     18 C14         7.4117   -1.5668   -4.5025 C.ar      1 <0>        -0.0914
     19 C15         6.2158   -0.9027   -4.3097 C.ar      1 <0>        -0.1558
     20 S1         -2.8544    3.9235    0.0480 S.3       1 <0>         0.4174
     21 C16        -3.6556    2.3286    0.0321 C.2       1 <0>        -0.3662
     22 C17        -5.0902    2.0250    0.0376 C.2       1 <0>         0.3998
     23 O3         -5.4673    0.8679    0.0336 O.2       1 <0>        -0.3588
     24 N3         -5.9911    3.0274    0.0471 N.am      1 <0>        -0.4250
     25 H1         -2.9012   -0.3889    1.0417 H         1 <0>         0.1008
     26 H2         -3.7871   -0.2357   -0.4946 H         1 <0>         0.1194
     27 H3         -2.0309   -0.5252   -0.5050 H         1 <0>         0.1081
     28 H4          2.0679    3.8054    0.0015 H         1 <0>         0.1958
     29 H5          3.1678    1.8087    0.4958 H         1 <0>         0.0941
     30 H6          2.3037    0.2526    0.4961 H         1 <0>         0.1328
     31 H7          2.0912    0.3702   -1.9716 H         1 <0>         0.1226
     32 H8          2.9553    1.9263   -1.9719 H         1 <0>         0.0977
     33 H9          4.9377    0.8256   -0.9682 H         1 <0>         0.0717
     34 H10         4.0736   -0.7305   -0.9680 H         1 <0>         0.0834
     35 H11         6.1679   -0.8638   -0.9294 H         1 <0>         0.1312
     36 H12         8.2923   -2.0560   -1.2820 H         1 <0>         0.1301
     37 H13         9.0919   -2.4999   -3.5670 H         1 <0>         0.1310
     38 H14         7.7643   -1.7632   -5.5043 H         1 <0>         0.1344
     39 H15         5.6340   -0.5792   -5.1601 H         1 <0>         0.1436
     40 H16        -5.6905    3.9496    0.0503 H         1 <0>         0.2164
     41 H17        -6.9400    2.8266    0.0507 H         1 <0>         0.2361
@<TRIPOS>BOND
     1    1    2 1
     2    1   25 1
     3    1   26 1
     4    1   27 1
     5    2   21 2
     6    2    3 1
     7    3    8 1
     8    3    4 2
     9    4    5 1
    10    4   20 1
    11    5    6 2
    12    6    7 1
    13    6   28 1
    14    7    8 am
    15    7   10 1
    16    8    9 2
    17   10   11 1
    18   10   29 1
    19   10   30 1
    20   11   12 1
    21   11   31 1
    22   11   32 1
    23   12   13 1
    24   12   33 1
    25   12   34 1
    26   13   14 1
    27   14   19 ar
    28   14   15 ar
    29   15   16 ar
    30   15   35 1
    31   16   17 ar
    32   16   36 1
    33   17   18 ar
    34   17   37 1
    35   18   19 ar
    36   18   38 1
    37   19   39 1
    38   20   21 1
    39   21   22 1
    40   22   23 2
    41   22   24 am
    42   24   40 1
    43   24   41 1
@<TRIPOS>MOLECULE
ZINC02889987
   41    42     0     0     0
SMALL
USER_CHARGES

@<TRIPOS>ATOM
      1 C1          3.0577    7.2487    7.0630 C.3       1 <0>        -0.1764
      2 C2          2.9500    6.4135    5.8133 C.ar      1 <0>        -0.0654
      3 C3          2.3791    5.1558    5.8696 C.ar      1 <0>        -0.1309
      4 C4          2.2803    4.3896    4.7233 C.ar      1 <0>        -0.1111
      5 C5          2.7515    4.8816    3.5204 C.ar      1 <0>        -0.1074
      6 C6          3.3266    6.1374    3.4650 C.ar      1 <0>        -0.1030
      7 C7          3.4215    6.9053    4.6105 C.ar      1 <0>        -0.1297
      8 C8          2.6437    4.0464    2.2706 C.3       1 <0>         0.0377
      9 N1          1.3689    4.3258    1.6050 N.pl3     1 <0>        -0.8802
     10 S1          1.1309    3.8474    0.0376 S.o2      1 <0>         2.7616
     11 O1          2.2676    4.2812   -0.6965 O.2       1 <0>        -0.9164
     12 O2         -0.1922    4.2333   -0.3084 O.2       1 <0>        -0.9142
     13 C9          1.1624    2.0857    0.0202 C.ar      1 <0>        -0.7794
     14 C10        -0.0087    1.3729    0.2001 C.ar      1 <0>        -0.0072
     15 C11         0.0127   -0.0080    0.1870 C.ar      1 <0>        -0.1534
     16 C12         1.2120   -0.6805   -0.0072 C.ar      1 <0>         0.1330
     17 C13         2.3864    0.0382   -0.1876 C.ar      1 <0>        -0.1858
     18 C14         2.3583    1.4190   -0.1735 C.ar      1 <0>        -0.0119
     19 N2          1.2372   -2.0798   -0.0205 N.am      1 <0>        -0.3140
     20 C15         0.1855   -2.7681   -0.5070 C.2       1 <0>         0.4031
     21 O3         -0.7423   -2.1761   -1.0220 O.2       1 <0>        -0.3995
     22 O4          0.1629   -4.1117   -0.4224 O.3       1 <0>        -0.2759
     23 C16        -1.0013   -4.7870   -0.9671 C.3       1 <0>        -0.0336
     24 H1          4.0059    7.0402    7.5587 H         1 <0>         0.0880
     25 H2          3.0103    8.3052    6.7992 H         1 <0>         0.0838
     26 H3          2.2350    7.0047    7.7351 H         1 <0>         0.0828
     27 H4          2.0107    4.7715    6.8093 H         1 <0>         0.1323
     28 H5          1.8346    3.4069    4.7673 H         1 <0>         0.1310
     29 H6          3.6987    6.5200    2.5261 H         1 <0>         0.1385
     30 H7          3.8672    7.8880    4.5665 H         1 <0>         0.1340
     31 H8          2.6919    2.9899    2.5344 H         1 <0>         0.0778
     32 H9          3.4659    4.2909    1.5982 H         1 <0>         0.1043
     33 H10         0.6642    4.7911    2.0824 H         1 <0>         0.2494
     34 H11        -0.9419    1.8965    0.3466 H         1 <0>         0.1556
     35 H12        -0.9023   -0.5642    0.3280 H         1 <0>         0.1680
     36 H13         3.3208   -0.4820   -0.3385 H         1 <0>         0.1380
     37 H14         3.2713    1.9786   -0.3137 H         1 <0>         0.1515
     38 H15         2.0115   -2.5542    0.3204 H         1 <0>         0.2448
     39 H16        -1.8961   -4.4457   -0.4465 H         1 <0>         0.0854
     40 H17        -1.0898   -4.5589   -2.0293 H         1 <0>         0.0879
     41 H18        -0.8922   -5.8634   -0.8345 H         1 <0>         0.1072
@<TRIPOS>BOND
     1    1    2 1
     2    1   24 1
     3    1   25 1
     4    1   26 1
     5    2    7 ar
     6    2    3 ar
     7    3    4 ar
     8    3   27 1
     9    4    5 ar
    10    4   28 1
    11    5    6 ar
    12    5    8 1
    13    6    7 ar
    14    6   29 1
    15    7   30 1
    16    8    9 1
    17    8   31 1
    18    8   32 1
    19    9   10 1
    20    9   33 1
    21   10   11 2
    22   10   12 2
    23   10   13 1
    24   13   18 ar
    25   13   14 ar
    26   14   15 ar
    27   14   34 1
    28   15   16 ar
    29   15   35 1
    30   16   17 ar
    31   16   19 1
    32   17   18 ar
    33   17   36 1
    34   18   37 1
    35   19   20 am
    36   19   38 1
    37   20   21 2
    38   20   22 1
    39   22   23 1
    40   23   39 1
    41   23   40 1
    42   23   41 1
@<TRIPOS>MOLECULE
ZINC02890243
   43    45     0     0     0
SMALL
USER_CHARGES

@<TRIPOS>ATOM
      1 C1         -4.1677    5.0342    4.5461 C.3       1 <0>        -0.1772
      2 C2         -3.2661    4.2210    3.6535 C.ar      1 <0>        -0.0613
      3 C3         -3.4222    2.8490    3.5807 C.ar      1 <0>        -0.1199
      4 C4         -2.5970    2.1010    2.7638 C.ar      1 <0>        -0.1039
      5 C5         -1.6104    2.7281    2.0150 C.ar      1 <0>         0.0276
      6 C6         -1.4526    4.1050    2.0942 C.ar      1 <0>        -0.1003
      7 C7         -2.2840    4.8483    2.9092 C.ar      1 <0>        -0.1199
      8 N1         -0.7713    1.9715    1.1849 N.am      1 <0>        -0.2793
      9 C8          0.1266    1.0968    1.6647 C.2       1 <0>         0.3067
     10 O1          0.3206    0.8565    2.8369 O.2       1 <0>        -0.2887
     11 C9          0.8585    0.4558    0.5057 C.3       1 <0>        -0.2564
     12 C10         0.2270    1.1178   -0.7359 C.3       1 <0>        -0.0825
     13 H1          0.9787    1.6689   -1.3009 H         1 <0>         0.1568
     14 C11        -0.7987    2.0638   -0.1504 C.2       1 <0>         0.3084
     15 O2         -1.5291    2.7904   -0.7893 O.2       1 <0>        -0.2562
     16 N2         -0.4206    0.1099   -1.5861 N.3       1 <0>        -0.1203
     17 N3         -1.4079   -0.5438   -0.9051 N.am      1 <0>        -0.3411
     18 C12        -2.1222   -1.5097   -1.5161 C.2       1 <0>         0.3729
     19 O3         -1.8878   -1.7992   -2.6736 O.2       1 <0>        -0.3752
     20 C13        -3.1879   -2.2152   -0.7810 C.ar      1 <0>        -0.2170
     21 C14        -3.5391   -1.8096    0.5092 C.ar      1 <0>        -0.0588
     22 C15        -4.5360   -2.4726    1.1905 C.ar      1 <0>        -0.1942
     23 C16        -5.1942   -3.5417    0.6032 C.ar      1 <0>        -0.0559
     24 C17        -4.8591   -3.9544   -0.6699 C.ar      1 <0>        -0.2169
     25 C18        -3.8598   -3.2947   -1.3750 C.ar      1 <0>         0.1826
     26 N4         -3.5246   -3.7044   -2.6589 N.pl3     1 <0>        -0.4033
     27 H2         -3.7219    5.1136    5.5376 H         1 <0>         0.0899
     28 H3         -4.2942    6.0311    4.1237 H         1 <0>         0.0851
     29 H4         -5.1393    4.5461    4.6227 H         1 <0>         0.0846
     30 H5         -4.1899    2.3618    4.1635 H         1 <0>         0.1374
     31 H6         -2.7195    1.0295    2.7074 H         1 <0>         0.1335
     32 H7         -0.6830    4.5950    1.5162 H         1 <0>         0.1399
     33 H8         -2.1639    5.9200    2.9686 H         1 <0>         0.1381
     34 H9          0.6898   -0.6210    0.4939 H         1 <0>         0.1325
     35 H10         1.9249    0.6753    0.5569 H         1 <0>         0.1355
     36 H11         0.2565   -0.5412   -1.9547 H         1 <0>         0.1767
     37 H12        -1.5949   -0.3128    0.0183 H         1 <0>         0.2300
     38 H13        -3.0294   -0.9774    0.9718 H         1 <0>         0.1183
     39 H14        -4.8064   -2.1574    2.1875 H         1 <0>         0.1313
     40 H15        -5.9746   -4.0548    1.1455 H         1 <0>         0.1311
     41 H16        -5.3767   -4.7883   -1.1205 H         1 <0>         0.1364
     42 H17        -2.6428   -3.5124   -3.0145 H         1 <0>         0.2557
     43 H18        -4.1722   -4.1827   -3.2000 H         1 <0>         0.2173
@<TRIPOS>BOND
     1    1    2 1
     2    1   27 1
     3    1   28 1
     4    1   29 1
     5    2    7 ar
     6    2    3 ar
     7    3    4 ar
     8    3   30 1
     9    4    5 ar
    10    4   31 1
    11    5    6 ar
    12    5    8 1
    13    6    7 ar
    14    6   32 1
    15    7   33 1
    16    8   14 am
    17    8    9 am
    18    9   10 2
    19    9   11 1
    20   11   12 1
    21   11   34 1
    22   11   35 1
    23   12   13 1
    24   12   14 1
    25   12   16 1
    26   14   15 2
    27   16   17 1
    28   16   36 1
    29   17   18 am
    30   17   37 1
    31   18   19 2
    32   18   20 1
    33   20   25 ar
    34   20   21 ar
    35   21   22 ar
    36   21   38 1
    37   22   23 ar
    38   22   39 1
    39   23   24 ar
    40   23   40 1
    41   24   25 ar
    42   24   41 1
    43   25   26 1
    44   26   42 1
    45   26   43 1
@<TRIPOS>MOLECULE
ZINC02898108
   43    45     0     0     0
SMALL
USER_CHARGES

@<TRIPOS>ATOM
      1 C1          3.6887   -0.5981   -0.9818 C.3       1 <0>        -0.1745
      2 C2          2.3683    0.1190   -0.8665 C.ar      1 <0>        -0.0963
      3 C3          1.2297   -0.5838   -0.5162 C.ar      1 <0>        -0.0948
      4 C4          0.0182    0.0702   -0.4102 C.ar      1 <0>        -0.1572
      5 C5         -0.0563    1.4354   -0.6557 C.ar      1 <0>         0.0789
      6 C6          1.0888    2.1380   -1.0073 C.ar      1 <0>        -0.1704
      7 C7          2.2976    1.4779   -1.1116 C.ar      1 <0>        -0.0462
      8 C8          3.5407    2.2396   -1.4931 C.3       1 <0>        -0.1775
      9 N1         -1.2828    2.0996   -0.5548 N.am      1 <0>        -0.1698
     10 C9         -2.4495    1.5100   -0.2322 C.2       1 <0>         0.3622
     11 O1         -2.6214    0.3317    0.0177 O.2       1 <0>        -0.3317
     12 C10        -3.4789    2.5670   -0.2366 C.2       1 <0>        -0.2841
     13 C11        -4.8233    2.4299    0.0388 C.2       1 <0>         0.0865
     14 C12        -5.6703    3.6174    0.1601 C.ar      1 <0>        -0.0849
     15 C13        -5.1741    4.7759    0.7758 C.ar      1 <0>        -0.0667
     16 C14        -5.9732    5.8906    0.8876 C.ar      1 <0>        -0.1313
     17 C15        -7.2715    5.8725    0.3919 C.ar      1 <0>         0.0743
     18 C16        -7.7733    4.7243   -0.2226 C.ar      1 <0>         0.0566
     19 C17        -6.9791    3.6029   -0.3443 C.ar      1 <0>        -0.1755
     20 O2         -9.0443    4.7126   -0.7062 O.3       1 <0>        -0.1997
     21 C18        -9.4927    3.5040   -1.3229 C.3       1 <0>        -0.0657
     22 O3         -8.0542    6.9756    0.5056 O.3       1 <0>        -0.2781
     23 C19        -2.7593    3.8018   -0.6051 C.2       1 <0>         0.3545
     24 O4         -3.2406    4.9124   -0.7267 O.2       1 <0>        -0.3350
     25 N2         -1.4678    3.4635   -0.7801 N.am      1 <0>        -0.2810
     26 H1          3.8181   -0.9595   -2.0020 H         1 <0>         0.0866
     27 H2          4.4980    0.0888   -0.7343 H         1 <0>         0.0841
     28 H3          3.7051   -1.4423   -0.2925 H         1 <0>         0.0820
     29 H4          1.2884   -1.6451   -0.3251 H         1 <0>         0.1390
     30 H5         -0.8705   -0.4791   -0.1362 H         1 <0>         0.1815
     31 H6          1.0342    3.1995   -1.1992 H         1 <0>         0.1255
     32 H7          3.6516    2.2344   -2.5774 H         1 <0>         0.0891
     33 H8          3.4591    3.2679   -1.1411 H         1 <0>         0.0805
     34 H9          4.4106    1.7673   -1.0366 H         1 <0>         0.0890
     35 H10        -5.2511    1.4463    0.1650 H         1 <0>         0.1574
     36 H11        -4.1658    4.7929    1.1622 H         1 <0>         0.1504
     37 H12        -5.5902    6.7822    1.3615 H         1 <0>         0.1507
     38 H13        -7.3651    2.7153   -0.8234 H         1 <0>         0.1407
     39 H14        -8.8532    3.2718   -2.1746 H         1 <0>         0.0664
     40 H15        -9.4465    2.6888   -0.6009 H         1 <0>         0.0681
     41 H16       -10.5204    3.6296   -1.6638 H         1 <0>         0.1116
     42 H17        -7.9868    7.5845   -0.2426 H         1 <0>         0.2308
     43 H18        -0.7636    4.0826   -1.0286 H         1 <0>         0.2738
@<TRIPOS>BOND
     1    1    2 1
     2    1   26 1
     3    1   27 1
     4    1   28 1
     5    2    7 ar
     6    2    3 ar
     7    3    4 ar
     8    3   29 1
     9    4    5 ar
    10    4   30 1
    11    5    6 ar
    12    5    9 1
    13    6    7 ar
    14    6   31 1
    15    7    8 1
    16    8   32 1
    17    8   33 1
    18    8   34 1
    19    9   25 1
    20    9   10 am
    21   10   11 2
    22   10   12 1
    23   12   13 2
    24   12   23 1
    25   13   14 1
    26   13   35 1
    27   14   19 ar
    28   14   15 ar
    29   15   16 ar
    30   15   36 1
    31   16   17 ar
    32   16   37 1
    33   17   18 ar
    34   17   22 1
    35   18   19 ar
    36   18   20 1
    37   19   38 1
    38   20   21 1
    39   21   39 1
    40   21   40 1
    41   21   41 1
    42   22   42 1
    43   23   24 2
    44   23   25 am
    45   25   43 1
@<TRIPOS>MOLECULE
ZINC02906730
   40    42     0     0     0
SMALL
USER_CHARGES

@<TRIPOS>ATOM
      1 C1         -0.0084   -4.2558    0.4690 C.3       1 <0>        -0.1724
      2 C2         -0.0107   -2.7546    0.3365 C.ar      1 <0>        -0.0964
      3 C3         -1.1770   -2.0939   -0.0034 C.ar      1 <0>        -0.0997
      4 C4         -1.1825   -0.7182   -0.1257 C.ar      1 <0>        -0.1693
      5 C5         -0.0150    0.0016    0.0933 C.ar      1 <0>         0.0755
      6 C6          1.1558   -0.6656    0.4294 C.ar      1 <0>        -0.1521
      7 C7          1.1533   -2.0409    0.5556 C.ar      1 <0>        -0.0986
      8 N1         -0.0171    1.3946   -0.0301 N.am      1 <0>        -0.1699
      9 C8          1.0580    2.1825    0.1605 C.2       1 <0>         0.3619
     10 O1          2.1785    1.8187    0.4643 O.2       1 <0>        -0.3326
     11 C9          0.6169    3.5716   -0.0697 C.2       1 <0>        -0.2816
     12 C10         1.3785    4.7183    0.0134 C.2       1 <0>         0.0842
     13 C11         0.7382    6.0308   -0.0849 C.ar      1 <0>        -0.0839
     14 C12        -0.5054    6.2546    0.5241 C.ar      1 <0>        -0.0685
     15 C13        -1.1041    7.4899    0.4299 C.ar      1 <0>        -0.1306
     16 C14        -0.4802    8.5178   -0.2672 C.ar      1 <0>         0.0736
     17 C15         0.7574    8.3042   -0.8758 C.ar      1 <0>         0.0572
     18 C16         1.3688    7.0710   -0.7835 C.ar      1 <0>        -0.1760
     19 O2          1.3632    9.3137   -1.5566 O.3       1 <0>        -0.1996
     20 C17         2.6285    9.0251   -2.1547 C.3       1 <0>        -0.0657
     21 O3         -1.0765    9.7339   -0.3560 O.3       1 <0>        -0.2755
     22 C18        -0.8160    3.4680   -0.4078 C.2       1 <0>         0.3533
     23 O4         -1.5669    4.3881   -0.6715 O.2       1 <0>        -0.3292
     24 N2         -1.1316    2.1595   -0.3735 N.am      1 <0>        -0.2817
     25 H1          0.2328   -4.7052   -0.4944 H         1 <0>         0.0867
     26 H2          0.7372   -4.5543    1.2060 H         1 <0>         0.0828
     27 H3         -0.9933   -4.5936    0.7911 H         1 <0>         0.0811
     28 H4         -2.0844   -2.6542   -0.1739 H         1 <0>         0.1348
     29 H5         -2.0938   -0.2027   -0.3908 H         1 <0>         0.1252
     30 H6          2.0663   -0.1091    0.5963 H         1 <0>         0.1819
     31 H7          2.0623   -2.5599    0.8213 H         1 <0>         0.1390
     32 H8          2.4474    4.6479    0.1511 H         1 <0>         0.1566
     33 H9         -0.9928    5.4578    1.0662 H         1 <0>         0.1498
     34 H10        -2.0614    7.6614    0.8994 H         1 <0>         0.1507
     35 H11         2.3283    6.9058   -1.2510 H         1 <0>         0.1408
     36 H12         3.3365    8.7273   -1.3813 H         1 <0>         0.0642
     37 H13         2.5138    8.2142   -2.8740 H         1 <0>         0.0703
     38 H14         3.0003    9.9136   -2.6650 H         1 <0>         0.1116
     39 H15        -0.8408   10.3407    0.3590 H         1 <0>         0.2280
     40 H16        -2.0127    1.7989   -0.5596 H         1 <0>         0.2742
@<TRIPOS>BOND
     1    1    2 1
     2    1   25 1
     3    1   26 1
     4    1   27 1
     5    2    7 ar
     6    2    3 ar
     7    3    4 ar
     8    3   28 1
     9    4    5 ar
    10    4   29 1
    11    5    6 ar
    12    5    8 1
    13    6    7 ar
    14    6   30 1
    15    7   31 1
    16    8   24 1
    17    8    9 am
    18    9   10 2
    19    9   11 1
    20   11   12 2
    21   11   22 1
    22   12   13 1
    23   12   32 1
    24   13   18 ar
    25   13   14 ar
    26   14   15 ar
    27   14   33 1
    28   15   16 ar
    29   15   34 1
    30   16   17 ar
    31   16   21 1
    32   17   18 ar
    33   17   19 1
    34   18   35 1
    35   19   20 1
    36   20   36 1
    37   20   37 1
    38   20   38 1
    39   21   39 1
    40   22   23 2
    41   22   24 am
    42   24   40 1
@<TRIPOS>MOLECULE
ZINC02907399
   40    42     0     0     0
SMALL
USER_CHARGES

@<TRIPOS>ATOM
      1 C1          7.7174   -8.8084    0.6684 C.3       1 <0>        -0.1723
      2 C2          6.8434   -7.5862    0.5536 C.ar      1 <0>        -0.0967
      3 C3          5.4678   -7.7228    0.5161 C.ar      1 <0>        -0.1000
      4 C4          4.6639   -6.6047    0.4105 C.ar      1 <0>        -0.1702
      5 C5          5.2385   -5.3421    0.3425 C.ar      1 <0>         0.0759
      6 C6          6.6206   -5.2087    0.3756 C.ar      1 <0>        -0.1518
      7 C7          7.4186   -6.3304    0.4866 C.ar      1 <0>        -0.0983
      8 N1          4.4274   -4.2079    0.2350 N.am      1 <0>        -0.1709
      9 C8          4.8841   -2.9436    0.1576 C.2       1 <0>         0.3625
     10 O1          6.0487   -2.5917    0.1682 O.2       1 <0>        -0.3294
     11 C9          3.7016   -2.0666    0.0605 C.2       1 <0>        -0.2872
     12 C10         3.6831   -0.6910   -0.0365 C.2       1 <0>         0.0946
     13 C11         2.4120    0.0303    0.0339 C.ar      1 <0>        -0.1002
     14 C12         1.4302   -0.3571    0.9588 C.ar      1 <0>        -0.0730
     15 C13         0.2373    0.3252    1.0205 C.ar      1 <0>        -0.1069
     16 C14        -0.0033    1.3963    0.1731 C.ar      1 <0>        -0.1842
     17 C15         0.9535    1.7929   -0.7458 C.ar      1 <0>         0.0597
     18 C16         2.1663    1.1161   -0.8241 C.ar      1 <0>         0.0767
     19 O2          3.1065    1.5020   -1.7230 O.3       1 <0>        -0.2776
     20 O3          0.7075    2.8446   -1.5722 O.3       1 <0>        -0.2010
     21 C17        -0.5586    3.4934   -1.4372 C.3       1 <0>        -0.0647
     22 C18         2.5431   -2.9807    0.0832 C.2       1 <0>         0.3535
     23 O4          1.3698   -2.6657    0.0193 O.2       1 <0>        -0.3352
     24 N2          3.0338   -4.2303    0.1874 N.am      1 <0>        -0.2817
     25 H1          7.9632   -9.1742   -0.3285 H         1 <0>         0.0865
     26 H2          8.6350   -8.5505    1.1973 H         1 <0>         0.0829
     27 H3          7.1863   -9.5845    1.2195 H         1 <0>         0.0809
     28 H4          5.0216   -8.7049    0.5690 H         1 <0>         0.1343
     29 H5          3.5897   -6.7121    0.3812 H         1 <0>         0.1246
     30 H6          7.0707   -4.2286    0.3185 H         1 <0>         0.1826
     31 H7          8.4932   -6.2271    0.5169 H         1 <0>         0.1392
     32 H8          4.6068   -0.1462   -0.1643 H         1 <0>         0.1696
     33 H9          1.6112   -1.1901    1.6219 H         1 <0>         0.1481
     34 H10        -0.5163    0.0252    1.7335 H         1 <0>         0.1381
     35 H11        -0.9453    1.9219    0.2272 H         1 <0>         0.1393
     36 H12         3.0335    1.0632   -2.5816 H         1 <0>         0.2319
     37 H13        -0.6596    3.8861   -0.4255 H         1 <0>         0.0689
     38 H14        -0.6252    4.3126   -2.1532 H         1 <0>         0.1110
     39 H15        -1.3566    2.7765   -1.6301 H         1 <0>         0.0672
     40 H16         2.4928   -5.0346    0.2247 H         1 <0>         0.2733
@<TRIPOS>BOND
     1    1    2 1
     2    1   25 1
     3    1   26 1
     4    1   27 1
     5    2    7 ar
     6    2    3 ar
     7    3    4 ar
     8    3   28 1
     9    4    5 ar
    10    4   29 1
    11    5    6 ar
    12    5    8 1
    13    6    7 ar
    14    6   30 1
    15    7   31 1
    16    8   24 1
    17    8    9 am
    18    9   10 2
    19    9   11 1
    20   11   12 2
    21   11   22 1
    22   12   13 1
    23   12   32 1
    24   13   18 ar
    25   13   14 ar
    26   14   15 ar
    27   14   33 1
    28   15   16 ar
    29   15   34 1
    30   16   17 ar
    31   16   35 1
    32   17   18 ar
    33   17   20 1
    34   18   19 1
    35   19   36 1
    36   20   21 1
    37   21   37 1
    38   21   38 1
    39   21   39 1
    40   22   23 2
    41   22   24 am
    42   24   40 1
@<TRIPOS>MOLECULE
ZINC02911114
   40    42     0     0     0
SMALL
USER_CHARGES

@<TRIPOS>ATOM
      1 C1          3.4126    2.9459   -0.0155 C.ar      1 <0>        -0.1128
      2 C2          2.9260    4.2397   -0.0039 C.ar      1 <0>        -0.1113
      3 C3          1.5603    4.4768    0.0108 C.ar      1 <0>        -0.0571
      4 C4          0.6777    3.4087    0.0139 C.ar      1 <0>        -0.1308
      5 C5          1.1739    2.0892    0.0021 C.ar      1 <0>        -0.1342
      6 C6          2.5416    1.8675   -0.0126 C.ar      1 <0>        -0.0575
      7 C7         -0.0144    1.2103    0.0087 C.2       1 <0>         0.3649
      8 O1          0.0021   -0.0041    0.0020 O.2       1 <0>        -0.2986
      9 N1         -1.1173    1.9805    0.0175 N.am      1 <0>        -0.2527
     10 C8         -0.7953    3.2866    0.0273 C.2       1 <0>         0.3590
     11 O2         -1.5830    4.2109    0.0395 O.2       1 <0>        -0.2806
     12 C9         -2.4293    1.4870    0.0203 C.ar      1 <0>         0.0403
     13 C10        -2.6559    0.1161    0.0138 C.ar      1 <0>        -0.1297
     14 C11        -3.9477   -0.3757    0.0165 C.ar      1 <0>        -0.1223
     15 C12        -5.0212    0.4917    0.0262 C.ar      1 <0>        -0.1181
     16 C13        -4.8040    1.8705    0.0328 C.ar      1 <0>        -0.1120
     17 C14        -3.5001    2.3663    0.0353 C.ar      1 <0>        -0.0911
     18 C15        -5.9520    2.8022    0.0426 C.2       1 <0>         0.3470
     19 O3         -5.7605    4.0025    0.0483 O.2       1 <0>        -0.3600
     20 N2         -7.2108    2.3206    0.0452 N.am      1 <0>        -0.3900
     21 C16        -8.3483    3.2438    0.0549 C.3       1 <0>        -0.0037
     22 C17        -9.6533    2.4452    0.0560 C.3       1 <0>        -0.1809
     23 C18       -10.8412    3.4094    0.0662 C.3       1 <0>         0.0040
     24 O4        -12.0601    2.6635    0.0672 O.3       1 <0>        -0.3553
     25 H1          4.4787    2.7741   -0.0273 H         1 <0>         0.1434
     26 H2          3.6147    5.0716   -0.0060 H         1 <0>         0.1438
     27 H3          1.1859    5.4898    0.0202 H         1 <0>         0.1535
     28 H4          2.9274    0.8588   -0.0220 H         1 <0>         0.1515
     29 H5         -1.8199   -0.5675    0.0062 H         1 <0>         0.1793
     30 H6         -4.1175   -1.4422    0.0114 H         1 <0>         0.1390
     31 H7         -6.0291    0.1037    0.0290 H         1 <0>         0.1259
     32 H8         -3.3258    3.4321    0.0452 H         1 <0>         0.2009
     33 H9         -7.3636    1.3628    0.0406 H         1 <0>         0.2243
     34 H10        -8.3029    3.8669    0.9481 H         1 <0>         0.0945
     35 H11        -8.3102    3.8766   -0.8318 H         1 <0>         0.0945
     36 H12        -9.6987    1.8222   -0.8372 H         1 <0>         0.0975
     37 H13        -9.6913    1.8125    0.9427 H         1 <0>         0.0976
     38 H14       -10.7958    4.0325    0.9594 H         1 <0>         0.0622
     39 H15       -10.8032    4.0422   -0.8206 H         1 <0>         0.0622
     40 H16       -12.8567    3.2117    0.0734 H         1 <0>         0.2134
@<TRIPOS>BOND
     1    1    6 ar
     2    1    2 ar
     3    1   25 1
     4    2    3 ar
     5    2   26 1
     6    3    4 ar
     7    3   27 1
     8    4   10 1
     9    4    5 ar
    10    5    6 ar
    11    5    7 1
    12    6   28 1
    13    7    8 2
    14    7    9 am
    15    9   10 am
    16    9   12 1
    17   10   11 2
    18   12   17 ar
    19   12   13 ar
    20   13   14 ar
    21   13   29 1
    22   14   15 ar
    23   14   30 1
    24   15   16 ar
    25   15   31 1
    26   16   17 ar
    27   16   18 1
    28   17   32 1
    29   18   19 2
    30   18   20 am
    31   20   21 1
    32   20   33 1
    33   21   22 1
    34   21   34 1
    35   21   35 1
    36   22   23 1
    37   22   36 1
    38   22   37 1
    39   23   24 1
    40   23   38 1
    41   23   39 1
    42   24   40 1
@<TRIPOS>MOLECULE
ZINC02914418
   45    47     0     0     0
SMALL
USER_CHARGES

@<TRIPOS>ATOM
      1 C1         -2.7875    2.1380    7.2610 C.3       1 <0>        -0.1626
      2 C2         -2.0456    2.0807    5.9505 C.2       1 <0>         0.1520
      3 C3         -2.6391    2.5621    4.8497 C.2       1 <0>        -0.2274
      4 C4         -1.9388    2.5294    3.5205 C.3       1 <0>         0.0945
      5 C5         -1.4844    3.9107    3.1215 C.ar      1 <0>        -0.1209
      6 C6         -0.6156    4.8160    3.6885 C.ar      1 <0>        -0.0573
      7 C7         -0.3935    6.0372    3.0767 C.ar      1 <0>        -0.1575
      8 C8         -1.0459    6.3446    1.8967 C.ar      1 <0>        -0.0909
      9 C9         -1.9166    5.4399    1.3257 C.ar      1 <0>        -0.1612
     10 C10        -2.1452    4.2078    1.9352 C.ar      1 <0>         0.0795
     11 N1         -2.9655    3.1428    1.5598 N.am      1 <0>        -0.2999
     12 C11        -2.9029    2.1208    2.4317 C.2       1 <0>         0.3342
     13 O1         -3.5062    1.0712    2.3582 O.2       1 <0>        -0.3141
     14 C12        -0.7729    1.5840    3.5662 C.2       1 <0>        -0.3319
     15 C13        -0.2830    1.1524    4.7587 C.2       1 <0>         0.2673
     16 O2         -0.8148    1.5494    5.9264 O.3       1 <0>        -0.1375
     17 N2          0.7808    0.2905    4.7696 N.pl3     1 <0>        -0.3820
     18 C14        -0.1816    1.1479    2.3706 C.2       1 <0>         0.3670
     19 O3          0.5878    1.8769    1.7703 O.2       1 <0>        -0.3450
     20 O4         -0.4657   -0.0801    1.8854 O.3       1 <0>        -0.2535
     21 C15         0.1719   -0.4585    0.6638 C.3       1 <0>        -0.0586
     22 C16        -3.9406    3.1142    4.9418 C.2       1 <0>         0.3757
     23 O5         -4.5121    3.1489    6.0152 O.2       1 <0>        -0.3860
     24 O6         -4.5463    3.6013    3.8390 O.3       1 <0>        -0.2507
     25 C17        -5.8582    4.1430    4.0051 C.3       1 <0>         0.0269
     26 C18        -6.3707    4.6348    2.6760 C.2       1 <0>        -0.1707
     27 C19        -7.5948    4.3560    2.3021 C.2       1 <0>        -0.2032
     28 H1         -2.1680    1.7084    8.0483 H         1 <0>         0.0827
     29 H2         -3.0160    3.1757    7.5040 H         1 <0>         0.1306
     30 H3         -3.7149    1.5714    7.1785 H         1 <0>         0.1343
     31 H4         -0.1079    4.5732    4.6103 H         1 <0>         0.1309
     32 H5          0.2880    6.7484    3.5196 H         1 <0>         0.1321
     33 H6         -0.8724    7.2978    1.4195 H         1 <0>         0.1313
     34 H7         -2.4222    5.6869    0.4039 H         1 <0>         0.1285
     35 H8         -3.5171    3.1400    0.7619 H         1 <0>         0.2436
     36 H9          1.2312    0.0655    3.9405 H         1 <0>         0.2572
     37 H10         1.0842   -0.0950    5.6064 H         1 <0>         0.2314
     38 H11         1.2535   -0.4394    0.7974 H         1 <0>         0.0696
     39 H12        -0.1092    0.2400   -0.1243 H         1 <0>         0.0821
     40 H13        -0.1422   -1.4647    0.3865 H         1 <0>         0.1044
     41 H14        -6.5246    3.3701    4.3881 H         1 <0>         0.0939
     42 H15        -5.8218    4.9734    4.7103 H         1 <0>         0.0945
     43 H16        -5.7287    5.2171    2.0317 H         1 <0>         0.1329
     44 H17        -8.2368    3.7736    2.9465 H         1 <0>         0.1156
     45 H18        -7.9621    4.7084    1.3496 H         1 <0>         0.1182
@<TRIPOS>BOND
     1    1    2 1
     2    1   28 1
     3    1   29 1
     4    1   30 1
     5    2   16 1
     6    2    3 2
     7    3    4 1
     8    3   22 1
     9    4   12 1
    10    4    5 1
    11    4   14 1
    12    5   10 ar
    13    5    6 ar
    14    6    7 ar
    15    6   31 1
    16    7    8 ar
    17    7   32 1
    18    8    9 ar
    19    8   33 1
    20    9   10 ar
    21    9   34 1
    22   10   11 1
    23   11   12 am
    24   11   35 1
    25   12   13 2
    26   14   15 2
    27   14   18 1
    28   15   16 1
    29   15   17 1
    30   17   36 1
    31   17   37 1
    32   18   19 2
    33   18   20 1
    34   20   21 1
    35   21   38 1
    36   21   39 1
    37   21   40 1
    38   22   23 2
    39   22   24 1
    40   24   25 1
    41   25   26 1
    42   25   41 1
    43   25   42 1
    44   26   27 2
    45   26   43 1
    46   27   44 1
    47   27   45 1
@<TRIPOS>MOLECULE
ZINC02927738
   41    43     0     0     0
SMALL
USER_CHARGES

@<TRIPOS>ATOM
      1 C1         -3.2330   -2.9263    0.0189 C.3       1 <0>        -0.0813
      2 N1         -3.3791   -1.5066    0.3497 N.am      1 <0>        -0.2307
      3 C2         -2.2884   -0.7057    0.2779 C.2       1 <0>         0.0373
      4 C3         -2.3437    0.6240    0.5703 C.2       1 <0>        -0.2143
      5 C4         -3.6288    1.2137    0.9846 C.ar      1 <0>         0.0256
      6 C5         -3.7545    2.5658    1.2910 C.ar      1 <0>        -0.1280
      7 C6         -4.9826    3.0664    1.6665 C.ar      1 <0>        -0.0972
      8 C7         -6.0942    2.2373    1.7370 C.ar      1 <0>        -0.1453
      9 C8         -5.9928    0.8976    1.4327 C.ar      1 <0>        -0.0631
     10 C9         -4.7595    0.3711    1.0501 C.ar      1 <0>        -0.1397
     11 C10        -4.5919   -1.0484    0.7139 C.2       1 <0>         0.3455
     12 O1         -5.5432   -1.8061    0.7637 O.2       1 <0>        -0.3491
     13 C11        -1.1357    1.4579    0.4795 C.2       1 <0>         0.3716
     14 O2         -1.1702    2.6198    0.8389 O.2       1 <0>        -0.3589
     15 N2          0.0095    0.9351   -0.0019 N.am      1 <0>        -0.3159
     16 C12         1.1821    1.7011   -0.0048 C.ar      1 <0>         0.0343
     17 C13         1.1096    3.0837   -0.0933 C.ar      1 <0>        -0.0506
     18 C14         2.2678    3.8376   -0.0912 C.ar      1 <0>        -0.1319
     19 C15         3.5008    3.2168   -0.0110 C.ar      1 <0>        -0.0493
     20 C16         3.5812    1.8391    0.0722 C.ar      1 <0>        -0.2128
     21 C17         2.4247    1.0763    0.0754 C.ar      1 <0>         0.0980
     22 O3          2.5022   -0.2789    0.1563 O.3       1 <0>        -0.2172
     23 C18         3.8096   -0.8503    0.2358 C.3       1 <0>        -0.0642
     24 N3          2.1886    5.3130   -0.1810 N.pl3     1 <0>         0.5541
     25 O4          3.2086    5.9786   -0.1843 O.2       1 <0>        -0.3637
     26 O5          1.1033    5.8614   -0.2517 O.3       1 <0>        -0.3475
     27 H1         -2.9802   -3.4852    0.9198 H         1 <0>         0.0907
     28 H2         -4.1706   -3.3022   -0.3908 H         1 <0>         0.1243
     29 H3         -2.4397   -3.0477   -0.7187 H         1 <0>         0.0821
     30 H4         -1.3440   -1.1356   -0.0215 H         1 <0>         0.1453
     31 H5         -2.8947    3.2172    1.2389 H         1 <0>         0.1870
     32 H6         -5.0812    4.1142    1.9088 H         1 <0>         0.1367
     33 H7         -7.0483    2.6471    2.0339 H         1 <0>         0.1350
     34 H8         -6.8623    0.2597    1.4897 H         1 <0>         0.1535
     35 H9          0.0207    0.0298   -0.3500 H         1 <0>         0.2407
     36 H10         0.1481    3.5710   -0.1605 H         1 <0>         0.2129
     37 H11         4.4035    3.8097   -0.0138 H         1 <0>         0.1664
     38 H12         4.5458    1.3574    0.1343 H         1 <0>         0.1526
     39 H13         3.7287   -1.9356    0.2955 H         1 <0>         0.1149
     40 H14         4.3802   -0.5767   -0.6517 H         1 <0>         0.0745
     41 H15         4.3170   -0.4743    1.1242 H         1 <0>         0.0775
@<TRIPOS>BOND
     1    1    2 1
     2    1   27 1
     3    1   28 1
     4    1   29 1
     5    2   11 am
     6    2    3 1
     7    3    4 2
     8    3   30 1
     9    4    5 1
    10    4   13 1
    11    5   10 ar
    12    5    6 ar
    13    6    7 ar
    14    6   31 1
    15    7    8 ar
    16    7   32 1
    17    8    9 ar
    18    8   33 1
    19    9   10 ar
    20    9   34 1
    21   10   11 1
    22   11   12 2
    23   13   14 2
    24   13   15 am
    25   15   16 1
    26   15   35 1
    27   16   21 ar
    28   16   17 ar
    29   17   18 ar
    30   17   36 1
    31   18   19 ar
    32   18   24 1
    33   19   20 ar
    34   19   37 1
    35   20   21 ar
    36   20   38 1
    37   21   22 1
    38   22   23 1
    39   23   39 1
    40   23   40 1
    41   23   41 1
    42   24   25 2
    43   24   26 1
@<TRIPOS>MOLECULE
ZINC02928150
   44    46     0     0     0
SMALL
USER_CHARGES

@<TRIPOS>ATOM
      1 C1         -2.5139    0.9796    0.0192 C.3       1 <0>        -0.1747
      2 C2         -1.2192    1.7508    0.0173 C.ar      1 <0>        -0.0725
      3 C3         -0.0126    1.0758    0.0080 C.ar      1 <0>        -0.1265
      4 C4          1.1748    1.7831    0.0004 C.ar      1 <0>        -0.1209
      5 C5          1.1561    3.1655    0.0076 C.ar      1 <0>        -0.1258
      6 C6         -0.0501    3.8402    0.0223 C.ar      1 <0>        -0.0801
      7 C7         -1.2379    3.1327    0.0303 C.ar      1 <0>        -0.1240
      8 C8         -0.0705    5.3471    0.0302 C.3       1 <0>        -0.1283
      9 C9         -0.0910    5.8643   -1.4096 C.3       1 <0>        -0.0027
     10 N1         -0.1108    7.3292   -1.4020 N.pl3     1 <0>        -0.8852
     11 S1          0.2361    8.1692   -2.7863 S.o2      1 <0>         2.7647
     12 O1          0.1089    9.5480   -2.4673 O.2       1 <0>        -0.9179
     13 O2          1.4365    7.6153   -3.3074 O.2       1 <0>        -0.9131
     14 C10        -1.0346    7.8024   -3.9505 C.ar      1 <0>        -0.7875
     15 C11        -0.8908    6.7321   -4.8145 C.ar      1 <0>         0.0005
     16 C12        -1.8863    6.4393   -5.7260 C.ar      1 <0>        -0.1933
     17 C13        -3.0288    7.2268   -5.7798 C.ar      1 <0>         0.1312
     18 C14        -3.1678    8.3035   -4.9141 C.ar      1 <0>        -0.1448
     19 C15        -2.1709    8.5887   -4.0021 C.ar      1 <0>         0.0080
     20 C16        -4.4079    9.1570   -4.9723 C.3       1 <0>        -0.1178
     21 C17        -4.8995    9.2462   -6.4174 C.3       1 <0>        -0.1826
     22 C18        -4.9535    7.8709   -7.0262 C.2       1 <0>         0.3091
     23 O3         -5.8318    7.5998   -7.8175 O.2       1 <0>        -0.3429
     24 N2         -4.0384    6.9387   -6.7031 N.am      1 <0>        -0.3157
     25 H1         -2.8212    0.7881    1.0473 H         1 <0>         0.0876
     26 H2         -3.2839    1.5611   -0.4878 H         1 <0>         0.0809
     27 H3         -2.3731    0.0319   -0.5005 H         1 <0>         0.0827
     28 H4          0.0021   -0.0041    0.0020 H         1 <0>         0.1312
     29 H5          2.1173    1.2559   -0.0114 H         1 <0>         0.1318
     30 H6          2.0839    3.7182    0.0014 H         1 <0>         0.1333
     31 H7         -2.1804    3.6599    0.0422 H         1 <0>         0.1300
     32 H8         -0.9605    5.6956    0.5541 H         1 <0>         0.0917
     33 H9          0.8192    5.7199    0.5376 H         1 <0>         0.0995
     34 H10         0.7990    5.5158   -1.9336 H         1 <0>         0.1046
     35 H11        -0.9807    5.4915   -1.9170 H         1 <0>         0.0779
     36 H12        -0.3272    7.8070   -0.5860 H         1 <0>         0.2445
     37 H13        -0.0002    6.1225   -4.7744 H         1 <0>         0.1544
     38 H14        -1.7752    5.6009   -6.3976 H         1 <0>         0.1424
     39 H15        -2.2789    9.4261   -3.3286 H         1 <0>         0.1544
     40 H16        -5.1850    8.7115   -4.3512 H         1 <0>         0.1008
     41 H17        -4.1780   10.1571   -4.6047 H         1 <0>         0.1032
     42 H18        -5.8954    9.6890   -6.4344 H         1 <0>         0.1257
     43 H19        -4.2173    9.8709   -6.9941 H         1 <0>         0.1186
     44 H20        -4.0799    6.0607   -7.1131 H         1 <0>         0.2476
@<TRIPOS>BOND
     1    1    2 1
     2    1   25 1
     3    1   26 1
     4    1   27 1
     5    2    7 ar
     6    2    3 ar
     7    3    4 ar
     8    3   28 1
     9    4    5 ar
    10    4   29 1
    11    5    6 ar
    12    5   30 1
    13    6    7 ar
    14    6    8 1
    15    7   31 1
    16    8    9 1
    17    8   32 1
    18    8   33 1
    19    9   10 1
    20    9   34 1
    21    9   35 1
    22   10   11 1
    23   10   36 1
    24   11   12 2
    25   11   13 2
    26   11   14 1
    27   14   19 ar
    28   14   15 ar
    29   15   16 ar
    30   15   37 1
    31   16   17 ar
    32   16   38 1
    33   17   24 1
    34   17   18 ar
    35   18   19 ar
    36   18   20 1
    37   19   39 1
    38   20   21 1
    39   20   40 1
    40   20   41 1
    41   21   22 1
    42   21   42 1
    43   21   43 1
    44   22   23 2
    45   22   24 am
    46   24   44 1
@<TRIPOS>MOLECULE
ZINC02955379
   41    43     0     0     0
SMALL
USER_CHARGES

@<TRIPOS>ATOM
      1 C1          0.1052   -2.8505   -0.0133 C.2       1 <0>        -0.3276
      2 C2          1.2475   -2.1628   -0.0210 C.2       1 <0>         0.0908
      3 C3          1.2206   -0.6819   -0.0133 C.ar      1 <0>         0.0036
      4 C4          0.0021   -0.0041    0.0020 C.ar      1 <0>        -0.1193
      5 C5         -0.0166    1.3757    0.0096 C.ar      1 <0>        -0.0655
      6 C6          1.1702    2.0864    0.0021 C.ar      1 <0>        -0.1091
      7 C7          2.3821    1.4195   -0.0132 C.ar      1 <0>        -0.0630
      8 C8          2.4136    0.0400   -0.0209 C.ar      1 <0>        -0.1304
      9 N1          1.1433    3.5664    0.0099 N.pl3     1 <0>         0.5477
     10 O1          0.0776    4.1560    0.0228 O.2       1 <0>        -0.3531
     11 O2          2.1868    4.1945    0.0033 O.3       1 <0>        -0.3519
     12 N2          2.4684   -2.8383   -0.0364 N.pl3     1 <0>        -0.2677
     13 N3          2.4939   -4.2391   -0.0437 N.am      1 <0>        -0.2742
     14 C9          3.6731   -4.8915   -0.0585 C.2       1 <0>         0.3786
     15 O3          4.7152   -4.2643   -0.0655 O.2       1 <0>        -0.3561
     16 C10         3.6999   -6.3629   -0.0661 C.2       1 <0>        -0.1628
     17 C11         4.8097   -7.1693   -0.0866 C.2       1 <0>        -0.0959
     18 C12         4.3279   -8.4847   -0.0851 C.2       1 <0>        -0.1169
     19 N4          3.0280   -8.4305   -0.0715 N.2       1 <0>        -0.0614
     20 N5          2.6217   -7.2080   -0.0603 N.pl3     1 <0>        -0.1251
     21 H1          1.6642   -6.9196   -0.0491 H         1 <0>         0.2784
     22 C13         5.2287   -9.6948   -0.1055 C.3       1 <0>        -0.0735
     23 C14         6.6291   -9.2419   -0.5377 C.3       1 <0>        -0.1606
     24 C15         7.0746   -8.0480    0.3096 C.3       1 <0>        -0.1615
     25 C16         6.2684   -6.8032   -0.0864 C.3       1 <0>        -0.0895
     26 H2          0.1248   -3.9303   -0.0190 H         1 <0>         0.1089
     27 H3         -0.8398   -2.3277   -0.0015 H         1 <0>         0.1335
     28 H4         -0.9251   -0.5578    0.0083 H         1 <0>         0.1564
     29 H5         -0.9598    1.9018    0.0169 H         1 <0>         0.1694
     30 H6          3.3055    1.9797   -0.0190 H         1 <0>         0.1699
     31 H7          3.3604   -0.4796   -0.0324 H         1 <0>         0.1490
     32 H8          3.2994   -2.3381   -0.0420 H         1 <0>         0.2771
     33 H9          1.6629   -4.7393   -0.0381 H         1 <0>         0.2470
     34 H10         5.2757  -10.1351    0.8905 H         1 <0>         0.0982
     35 H11         4.8440  -10.4278   -0.8145 H         1 <0>         0.0989
     36 H12         7.3327  -10.0635   -0.4040 H         1 <0>         0.0853
     37 H13         6.6074   -8.9510   -1.5880 H         1 <0>         0.0887
     38 H14         6.9067   -8.2687    1.3638 H         1 <0>         0.0865
     39 H15         8.1353   -7.8606    0.1428 H         1 <0>         0.0853
     40 H16         6.4500   -6.0034    0.6316 H         1 <0>         0.1107
     41 H17         6.5625   -6.4762   -1.0837 H         1 <0>         0.1014
@<TRIPOS>BOND
     1    1    2 2
     2    1   26 1
     3    1   27 1
     4    2    3 1
     5    2   12 1
     6    3    8 ar
     7    3    4 ar
     8    4    5 ar
     9    4   28 1
    10    5    6 ar
    11    5   29 1
    12    6    7 ar
    13    6    9 1
    14    7    8 ar
    15    7   30 1
    16    8   31 1
    17    9   10 2
    18    9   11 1
    19   12   13 1
    20   12   32 1
    21   13   14 am
    22   13   33 1
    23   14   15 2
    24   14   16 1
    25   16   20 1
    26   16   17 2
    27   17   25 1
    28   17   18 1
    29   18   19 2
    30   18   22 1
    31   19   20 1
    32   20   21 1
    33   22   23 1
    34   22   34 1
    35   22   35 1
    36   23   24 1
    37   23   36 1
    38   23   37 1
    39   24   25 1
    40   24   38 1
    41   24   39 1
    42   25   40 1
    43   25   41 1
@<TRIPOS>MOLECULE
ZINC02956113
   39    42     0     0     0
SMALL
USER_CHARGES

@<TRIPOS>ATOM
      1 C1         -0.9681    3.2450   -1.8312 C.3       1 <0>        -0.0627
      2 O1         -1.0096    1.8292   -1.6418 O.3       1 <0>        -0.2044
      3 C2          0.0714    1.2536   -1.0529 C.ar      1 <0>         0.1215
      4 C3          1.1502    2.0365   -0.6654 C.ar      1 <0>        -0.2420
      5 C4          2.2500    1.4529   -0.0660 C.ar      1 <0>        -0.0664
      6 C5          2.2799    0.0886    0.1496 C.ar      1 <0>        -0.2063
      7 C6          1.2032   -0.7002   -0.2366 C.ar      1 <0>         0.1013
      8 C7          0.0974   -0.1153   -0.8390 C.ar      1 <0>        -0.1739
      9 N1          1.2335   -2.0802   -0.0195 N.pl3     1 <0>        -0.2330
     10 C8          0.0481   -2.7904    0.0931 C.2       1 <0>        -0.0766
     11 N2         -1.2057   -2.3561    0.1332 N.2       1 <0>        -0.1543
     12 N3         -2.1823   -3.1478    0.2349 N.2       1 <0>        -0.0549
     13 C9         -2.0132   -4.4624    0.3203 C.2       1 <0>        -0.2010
     14 S1         -0.2271   -4.5540    0.2338 S.3       1 <0>         0.3021
     15 C10        -3.0123   -5.5401    0.4500 C.2       1 <0>        -0.1225
     16 C11        -4.3610   -5.2451    0.5049 C.2       1 <0>         0.0003
     17 C12        -5.2881   -6.3112    0.6256 C.ar      1 <0>        -0.1582
     18 C13        -6.6651   -6.0449    0.6792 C.ar      1 <0>        -0.0514
     19 C14        -7.5531   -7.0724    0.8004 C.ar      1 <0>        -0.1811
     20 C15        -7.1024   -8.3893    0.8723 C.ar      1 <0>         0.1278
     21 C16        -5.7477   -8.6718    0.8206 C.ar      1 <0>        -0.1794
     22 C17        -4.8284   -7.6389    0.6973 C.ar      1 <0>         0.1337
     23 O2         -3.5074   -7.9175    0.6480 O.3       1 <0>        -0.1577
     24 C18        -2.5907   -6.9428    0.5291 C.2       1 <0>         0.3613
     25 O3         -1.4073   -7.2243    0.4873 O.2       1 <0>        -0.2920
     26 O4         -7.9978   -9.4024    0.9938 O.3       1 <0>        -0.2857
     27 H1         -0.8639    3.7380   -0.8646 H         1 <0>         0.0689
     28 H2         -0.1184    3.5022   -2.4636 H         1 <0>         0.0668
     29 H3         -1.8902    3.5748   -2.3098 H         1 <0>         0.1086
     30 H4          1.1298    3.1033   -0.8322 H         1 <0>         0.1354
     31 H5          3.0860    2.0650    0.2386 H         1 <0>         0.1328
     32 H6          3.1407   -0.3650    0.6183 H         1 <0>         0.1299
     33 H7         -0.7411   -0.7259   -1.1399 H         1 <0>         0.1818
     34 H8          2.0839   -2.5413    0.0523 H         1 <0>         0.2589
     35 H9         -4.7029   -4.2220    0.4533 H         1 <0>         0.1701
     36 H10        -7.0210   -5.0268    0.6240 H         1 <0>         0.1478
     37 H11        -8.6121   -6.8646    0.8414 H         1 <0>         0.1502
     38 H12        -5.4066   -9.6950    0.8765 H         1 <0>         0.1650
     39 H13        -8.3042   -9.7599    0.1491 H         1 <0>         0.2392
@<TRIPOS>BOND
     1    1    2 1
     2    1   27 1
     3    1   28 1
     4    1   29 1
     5    2    3 1
     6    3    8 ar
     7    3    4 ar
     8    4    5 ar
     9    4   30 1
    10    5    6 ar
    11    5   31 1
    12    6    7 ar
    13    6   32 1
    14    7    8 ar
    15    7    9 1
    16    8   33 1
    17    9   10 1
    18    9   34 1
    19   10   14 1
    20   10   11 2
    21   11   12 1
    22   12   13 2
    23   13   14 1
    24   13   15 1
    25   15   24 1
    26   15   16 2
    27   16   17 1
    28   16   35 1
    29   17   22 ar
    30   17   18 ar
    31   18   19 ar
    32   18   36 1
    33   19   20 ar
    34   19   37 1
    35   20   21 ar
    36   20   26 1
    37   21   22 ar
    38   21   38 1
    39   22   23 1
    40   23   24 1
    41   24   25 2
    42   26   39 1
@<TRIPOS>MOLECULE
ZINC02957637
   43    46     0     0     0
SMALL
USER_CHARGES

@<TRIPOS>ATOM
      1 C1         13.3883   -4.9166   -3.1108 C.3       1 <0>        -0.1765
      2 C2         13.0786   -3.8413   -2.1014 C.ar      1 <0>        -0.0552
      3 C3         14.1092   -3.1608   -1.4789 C.ar      1 <0>        -0.1302
      4 C4         13.8290   -2.1734   -0.5526 C.ar      1 <0>        -0.1047
      5 C5         12.5180   -1.8638   -0.2462 C.ar      1 <0>        -0.1668
      6 C6         11.4816   -2.5451   -0.8693 C.ar      1 <0>         0.0740
      7 C7         11.7662   -3.5399   -1.7953 C.ar      1 <0>        -0.1151
      8 N1         10.1499   -2.2334   -0.5601 N.pl3     1 <0>        -0.1472
      9 C8          9.6658   -1.8525    0.6548 C.2       1 <0>         0.1792
     10 C9          8.3012   -1.6534    0.4850 C.2       1 <0>        -0.3110
     11 N2          7.9996   -1.9051   -0.8025 N.2       1 <0>        -0.0356
     12 N3          9.0613   -2.2476   -1.4428 N.2       1 <0>        -0.0216
     13 C10         7.3548   -1.2355    1.5264 C.2       1 <0>         0.4071
     14 O1          7.7474   -1.0361    2.6608 O.2       1 <0>        -0.4118
     15 N4          6.0511   -1.0725    1.2260 N.am      1 <0>        -0.3716
     16 C11         5.1066   -0.6554    2.2653 C.3       1 <0>         0.0421
     17 C12         3.7246   -0.5476    1.6742 C.ar      1 <0>        -0.1086
     18 C13         2.8855   -1.6464    1.6768 C.ar      1 <0>        -0.1071
     19 C14         1.6171   -1.5526    1.1353 C.ar      1 <0>        -0.1162
     20 C15         1.1834   -0.3557    0.5885 C.ar      1 <0>         0.0122
     21 C16         2.0284    0.7513    0.5864 C.ar      1 <0>         0.0010
     22 C17         3.2983    0.6500    1.1309 C.ar      1 <0>        -0.0959
     23 O2          1.3764    1.7966   -0.0014 O.3       1 <0>        -0.2062
     24 C18        -0.0175    1.4357    0.0099 C.3       1 <0>         0.1069
     25 O3          0.0021   -0.0041    0.0020 O.3       1 <0>        -0.2069
     26 N5         10.3859   -1.6983    1.8214 N.pl3     1 <0>        -0.3759
     27 H1         13.4730   -5.8776   -2.6036 H         1 <0>         0.0909
     28 H2         12.5870   -4.9643   -3.8482 H         1 <0>         0.0900
     29 H3         14.3289   -4.6855   -3.6109 H         1 <0>         0.0860
     30 H4         15.1349   -3.4014   -1.7166 H         1 <0>         0.1373
     31 H5         14.6358   -1.6439   -0.0678 H         1 <0>         0.1382
     32 H6         12.2998   -1.0921    0.4772 H         1 <0>         0.1381
     33 H7         10.9618   -4.0745   -2.2787 H         1 <0>         0.1580
     34 H8          5.7381   -1.2314    0.3218 H         1 <0>         0.2443
     35 H9          5.4083    0.3136    2.6628 H         1 <0>         0.0990
     36 H10         5.1016   -1.3921    3.0687 H         1 <0>         0.0990
     37 H11         3.2220   -2.5802    2.1025 H         1 <0>         0.1445
     38 H12         0.9638   -2.4126    1.1387 H         1 <0>         0.1459
     39 H13         3.9558    1.5068    1.1302 H         1 <0>         0.1490
     40 H14        -0.5191    1.8168   -0.8796 H         1 <0>         0.1316
     41 H15        -0.5019    1.8072    0.9129 H         1 <0>         0.0888
     42 H16         9.9365   -1.4235    2.6360 H         1 <0>         0.2727
     43 H17        11.3415   -1.8646    1.8271 H         1 <0>         0.2282
@<TRIPOS>BOND
     1    1    2 1
     2    1   27 1
     3    1   28 1
     4    1   29 1
     5    2    7 ar
     6    2    3 ar
     7    3    4 ar
     8    3   30 1
     9    4    5 ar
    10    4   31 1
    11    5    6 ar
    12    5   32 1
    13    6    7 ar
    14    6    8 1
    15    7   33 1
    16    8   12 1
    17    8    9 1
    18    9   10 2
    19    9   26 1
    20   10   11 1
    21   10   13 1
    22   11   12 2
    23   13   14 2
    24   13   15 am
    25   15   16 1
    26   15   34 1
    27   16   17 1
    28   16   35 1
    29   16   36 1
    30   17   22 ar
    31   17   18 ar
    32   18   19 ar
    33   18   37 1
    34   19   20 ar
    35   19   38 1
    36   20   25 1
    37   20   21 ar
    38   21   22 ar
    39   21   23 1
    40   22   39 1
    41   23   24 1
    42   24   25 1
    43   24   40 1
    44   24   41 1
    45   26   42 1
    46   26   43 1
@<TRIPOS>MOLECULE
ZINC02957650
   40    43     0     0     0
SMALL
USER_CHARGES

@<TRIPOS>ATOM
      1 C1        -10.6529   -5.8621    0.2300 C.2       1 <0>        -0.2239
      2 C2         -9.9287   -4.9832    1.0679 C.2       1 <0>        -0.1922
      3 C3         -9.9069   -3.7874    0.4523 C.2       1 <0>        -0.0862
      4 O1        -10.5806   -3.8934   -0.7047 O.3       1 <0>        -0.0502
      5 C4        -11.0303   -5.1508   -0.8475 C.2       1 <0>        -0.0898
      6 C5         -9.2444   -2.5389    0.9752 C.3       1 <0>         0.0802
      7 N1         -7.8589   -2.4865    0.5021 N.am      1 <0>        -0.3733
      8 C6         -7.0677   -1.4515    0.8473 C.2       1 <0>         0.4094
      9 O2         -7.5041   -0.5606    1.5520 O.2       1 <0>        -0.4115
     10 C7         -5.6794   -1.3990    0.3733 C.2       1 <0>        -0.3103
     11 C8         -4.7573   -0.3991    0.6574 C.2       1 <0>         0.1799
     12 N2         -3.6071   -0.7476    0.0170 N.pl3     1 <0>        -0.1443
     13 N3         -3.8594   -1.9621   -0.6354 N.2       1 <0>        -0.0197
     14 N4         -5.0755   -2.3140   -0.4077 N.2       1 <0>        -0.0351
     15 C9         -2.4001   -0.0318    0.0157 C.ar      1 <0>         0.0674
     16 C10        -2.4159    1.3563    0.0255 C.ar      1 <0>        -0.1613
     17 C11        -1.2284    2.0614    0.0190 C.ar      1 <0>        -0.1055
     18 C12        -0.0168    1.3858    0.0097 C.ar      1 <0>         0.0186
     19 C13         0.0021   -0.0041    0.0020 C.ar      1 <0>         0.0367
     20 C14        -1.1904   -0.7111    0.0041 C.ar      1 <0>        -0.1117
     21 O3          1.1808   -0.6848   -0.0065 O.3       1 <0>        -0.1974
     22 C15         2.3472    0.0532   -0.3870 C.3       1 <0>        -0.0523
     23 C16         2.3350    1.3912    0.3647 C.3       1 <0>        -0.0534
     24 O4          1.1438    2.0980    0.0024 O.3       1 <0>        -0.2012
     25 N5         -4.9662    0.7240    1.4313 N.pl3     1 <0>        -0.3760
     26 H1        -10.8625   -6.9046    0.4187 H         1 <0>         0.1572
     27 H2         -9.4788   -5.2256    2.0193 H         1 <0>         0.1594
     28 H3        -11.6014   -5.5262   -1.6837 H         1 <0>         0.1992
     29 H4         -9.2560   -2.5507    2.0651 H         1 <0>         0.1128
     30 H5         -9.7846   -1.6631    0.6156 H         1 <0>         0.1071
     31 H6         -7.5110   -3.1967   -0.0596 H         1 <0>         0.2466
     32 H7         -3.3575    1.8851    0.0354 H         1 <0>         0.1446
     33 H8         -1.2431    3.1413    0.0271 H         1 <0>         0.1540
     34 H9         -1.1777   -1.7910   -0.0037 H         1 <0>         0.1725
     35 H10         3.2417   -0.5099   -0.1207 H         1 <0>         0.1268
     36 H11         2.3333    0.2344   -1.4617 H         1 <0>         0.0988
     37 H12         2.3420    1.2092    1.4394 H         1 <0>         0.0968
     38 H13         3.2100    1.9780    0.0850 H         1 <0>         0.1261
     39 H14        -4.2482    1.3628    1.5629 H         1 <0>         0.2281
     40 H15        -5.8312    0.8748    1.8437 H         1 <0>         0.2729
@<TRIPOS>BOND
     1    1    5 2
     2    1    2 1
     3    1   26 1
     4    2    3 2
     5    2   27 1
     6    3    4 1
     7    3    6 1
     8    4    5 1
     9    5   28 1
    10    6    7 1
    11    6   29 1
    12    6   30 1
    13    7    8 am
    14    7   31 1
    15    8    9 2
    16    8   10 1
    17   10   14 1
    18   10   11 2
    19   11   12 1
    20   11   25 1
    21   12   13 1
    22   12   15 1
    23   13   14 2
    24   15   20 ar
    25   15   16 ar
    26   16   17 ar
    27   16   32 1
    28   17   18 ar
    29   17   33 1
    30   18   24 1
    31   18   19 ar
    32   19   20 ar
    33   19   21 1
    34   20   34 1
    35   21   22 1
    36   22   23 1
    37   22   35 1
    38   22   36 1
    39   23   24 1
    40   23   37 1
    41   23   38 1
    42   25   39 1
    43   25   40 1
@<TRIPOS>MOLECULE
ZINC02957652
   43    46     0     0     0
SMALL
USER_CHARGES

@<TRIPOS>ATOM
      1 C1        -11.1229   -6.0775   -0.5045 C.ar      1 <0>        -0.1195
      2 C2        -10.4625   -6.1029    0.7097 C.ar      1 <0>        -0.1306
      3 C3         -9.8541   -4.9582    1.1897 C.ar      1 <0>        -0.1098
      4 C4         -9.9065   -3.7879    0.4557 C.ar      1 <0>        -0.1103
      5 C5        -10.5717   -3.7610   -0.7557 C.ar      1 <0>        -0.1097
      6 C6        -11.1756   -4.9071   -1.2382 C.ar      1 <0>        -0.1306
      7 C7         -9.2437   -2.5399    0.9793 C.3       1 <0>         0.0369
      8 N1         -7.8586   -2.4869    0.5050 N.am      1 <0>        -0.3701
      9 C8         -7.0671   -1.4522    0.8505 C.2       1 <0>         0.4060
     10 O1         -7.5030   -0.5620    1.5564 O.2       1 <0>        -0.4122
     11 C9         -5.6792   -1.3991    0.3753 C.2       1 <0>        -0.3097
     12 C10        -4.7570   -0.3993    0.6593 C.2       1 <0>         0.1788
     13 N2         -3.6071   -0.7476    0.0184 N.pl3     1 <0>        -0.1447
     14 N3         -3.8597   -1.9618   -0.6344 N.2       1 <0>        -0.0214
     15 N4         -5.0757   -2.3139   -0.4064 N.2       1 <0>        -0.0357
     16 C11        -2.4001   -0.0318    0.0167 C.ar      1 <0>         0.0681
     17 C12        -2.4159    1.3563    0.0271 C.ar      1 <0>        -0.1615
     18 C13        -1.2284    2.0614    0.0190 C.ar      1 <0>        -0.1056
     19 C14        -0.0168    1.3858    0.0097 C.ar      1 <0>         0.0183
     20 C15         0.0021   -0.0041    0.0020 C.ar      1 <0>         0.0365
     21 C16        -1.1904   -0.7111    0.0043 C.ar      1 <0>        -0.1119
     22 O2          1.1808   -0.6848   -0.0073 O.3       1 <0>        -0.1975
     23 C17         2.3470    0.0534   -0.3880 C.3       1 <0>        -0.0523
     24 C18         2.3352    1.3911    0.3642 C.3       1 <0>        -0.0533
     25 O3          1.1438    2.0980    0.0024 O.3       1 <0>        -0.2014
     26 N5         -4.9657    0.7237    1.4335 N.pl3     1 <0>        -0.3763
     27 H1        -11.5979   -6.9719   -0.8797 H         1 <0>         0.1300
     28 H2        -10.4216   -7.0172    1.2831 H         1 <0>         0.1313
     29 H3         -9.3382   -4.9780    2.1383 H         1 <0>         0.1345
     30 H4        -10.6164   -2.8456   -1.3270 H         1 <0>         0.1345
     31 H5        -11.6918   -4.8871   -2.1866 H         1 <0>         0.1314
     32 H6         -9.2543   -2.5527    2.0691 H         1 <0>         0.0973
     33 H7         -9.7842   -1.6638    0.6209 H         1 <0>         0.0972
     34 H8         -7.5111   -3.1966   -0.0577 H         1 <0>         0.2434
     35 H9         -3.3575    1.8851    0.0380 H         1 <0>         0.1446
     36 H10        -1.2431    3.1413    0.0273 H         1 <0>         0.1538
     37 H11        -1.1777   -1.7910   -0.0039 H         1 <0>         0.1725
     38 H12         3.2416   -0.5099   -0.1223 H         1 <0>         0.1267
     39 H13         2.3326    0.2350   -1.4627 H         1 <0>         0.0987
     40 H14         2.3427    1.2086    1.4388 H         1 <0>         0.0968
     41 H15         3.2100    1.9779    0.0843 H         1 <0>         0.1260
     42 H16        -4.2477    1.3625    1.5648 H         1 <0>         0.2276
     43 H17        -5.8304    0.8743    1.8464 H         1 <0>         0.2730
@<TRIPOS>BOND
     1    1    6 ar
     2    1    2 ar
     3    1   27 1
     4    2    3 ar
     5    2   28 1
     6    3    4 ar
     7    3   29 1
     8    4    5 ar
     9    4    7 1
    10    5    6 ar
    11    5   30 1
    12    6   31 1
    13    7    8 1
    14    7   32 1
    15    7   33 1
    16    8    9 am
    17    8   34 1
    18    9   10 2
    19    9   11 1
    20   11   15 1
    21   11   12 2
    22   12   13 1
    23   12   26 1
    24   13   14 1
    25   13   16 1
    26   14   15 2
    27   16   21 ar
    28   16   17 ar
    29   17   18 ar
    30   17   35 1
    31   18   19 ar
    32   18   36 1
    33   19   25 1
    34   19   20 ar
    35   20   21 ar
    36   20   22 1
    37   21   37 1
    38   22   23 1
    39   23   24 1
    40   23   38 1
    41   23   39 1
    42   24   25 1
    43   24   40 1
    44   24   41 1
    45   26   42 1
    46   26   43 1
@<TRIPOS>MOLECULE
ZINC02957721
   40    43     0     0     0
SMALL
USER_CHARGES

@<TRIPOS>ATOM
      1 C1        -10.6384   -6.0279    0.3471 C.2       1 <0>        -0.1803
      2 C2         -9.9638   -5.0221    1.0133 C.2       1 <0>        -0.1546
      3 C3         -9.9065   -3.7879    0.4557 C.2       1 <0>        -0.2933
      4 S1        -10.8133   -4.0266   -1.0634 S.3       1 <0>         0.3334
      5 C4        -11.2136   -5.7532   -0.8491 C.2       1 <0>        -0.2995
      6 C5         -9.2437   -2.5399    0.9793 C.3       1 <0>         0.0821
      7 N1         -7.8586   -2.4869    0.5050 N.am      1 <0>        -0.3724
      8 C6         -7.0671   -1.4522    0.8505 C.2       1 <0>         0.4082
      9 O1         -7.5030   -0.5620    1.5564 O.2       1 <0>        -0.4117
     10 C7         -5.6792   -1.3991    0.3753 C.2       1 <0>        -0.3103
     11 C8         -4.7570   -0.3993    0.6593 C.2       1 <0>         0.1796
     12 N2         -3.6071   -0.7476    0.0184 N.pl3     1 <0>        -0.1443
     13 N3         -3.8597   -1.9618   -0.6344 N.2       1 <0>        -0.0201
     14 N4         -5.0757   -2.3139   -0.4064 N.2       1 <0>        -0.0353
     15 C9         -2.4001   -0.0318    0.0167 C.ar      1 <0>         0.0675
     16 C10        -2.4159    1.3563    0.0271 C.ar      1 <0>        -0.1613
     17 C11        -1.2284    2.0614    0.0190 C.ar      1 <0>        -0.1055
     18 C12        -0.0168    1.3858    0.0097 C.ar      1 <0>         0.0186
     19 C13         0.0021   -0.0041    0.0020 C.ar      1 <0>         0.0366
     20 C14        -1.1904   -0.7111    0.0043 C.ar      1 <0>        -0.1117
     21 O2          1.1808   -0.6848   -0.0073 O.3       1 <0>        -0.1974
     22 C15         2.3470    0.0534   -0.3880 C.3       1 <0>        -0.0524
     23 C16         2.3352    1.3911    0.3642 C.3       1 <0>        -0.0534
     24 O3          1.1438    2.0980    0.0024 O.3       1 <0>        -0.2013
     25 N5         -4.9657    0.7237    1.4335 N.pl3     1 <0>        -0.3760
     26 H1        -10.7023   -7.0191    0.7712 H         1 <0>         0.1436
     27 H2         -9.4919   -5.2159    1.9652 H         1 <0>         0.1457
     28 H3        -11.7695   -6.4087   -1.5031 H         1 <0>         0.1875
     29 H4         -9.2543   -2.5527    2.0691 H         1 <0>         0.1076
     30 H5         -9.7842   -1.6638    0.6209 H         1 <0>         0.1041
     31 H6         -7.5111   -3.1966   -0.0577 H         1 <0>         0.2456
     32 H7         -3.3575    1.8851    0.0380 H         1 <0>         0.1445
     33 H8         -1.2431    3.1413    0.0273 H         1 <0>         0.1540
     34 H9         -1.1777   -1.7910   -0.0039 H         1 <0>         0.1725
     35 H10         3.2416   -0.5099   -0.1223 H         1 <0>         0.1268
     36 H11         2.3326    0.2350   -1.4627 H         1 <0>         0.0988
     37 H12         2.3427    1.2086    1.4388 H         1 <0>         0.0968
     38 H13         3.2100    1.9779    0.0843 H         1 <0>         0.1261
     39 H14        -4.2477    1.3625    1.5648 H         1 <0>         0.2280
     40 H15        -5.8304    0.8743    1.8464 H         1 <0>         0.2729
@<TRIPOS>BOND
     1    1    5 2
     2    1    2 1
     3    1   26 1
     4    2    3 2
     5    2   27 1
     6    3    4 1
     7    3    6 1
     8    4    5 1
     9    5   28 1
    10    6    7 1
    11    6   29 1
    12    6   30 1
    13    7    8 am
    14    7   31 1
    15    8    9 2
    16    8   10 1
    17   10   14 1
    18   10   11 2
    19   11   12 1
    20   11   25 1
    21   12   13 1
    22   12   15 1
    23   13   14 2
    24   15   20 ar
    25   15   16 ar
    26   16   17 ar
    27   16   32 1
    28   17   18 ar
    29   17   33 1
    30   18   24 1
    31   18   19 ar
    32   19   20 ar
    33   19   21 1
    34   20   34 1
    35   21   22 1
    36   22   23 1
    37   22   35 1
    38   22   36 1
    39   23   24 1
    40   23   37 1
    41   23   38 1
    42   25   39 1
    43   25   40 1
@<TRIPOS>MOLECULE
ZINC02974475
   43    44     0     0     0
SMALL
USER_CHARGES

@<TRIPOS>ATOM
      1 C1          7.5291    4.5304    0.6080 C.3       1 <0>        -0.1463
      2 C2          6.2024    5.1924    0.3384 C.2       1 <0>         0.0539
      3 C3          4.9957    4.5605    0.2645 C.2       1 <0>        -0.2423
      4 C4          4.0129    5.6161   -0.0208 C.2       1 <0>        -0.2062
      5 C5          4.7091    6.7617   -0.0802 C.2       1 <0>        -0.0896
      6 O1          6.0081    6.4983    0.1307 O.3       1 <0>        -0.0561
      7 C6          4.7329    3.1197    0.4297 C.2       1 <0>         0.3864
      8 O2          5.6514    2.3565    0.6591 O.2       1 <0>        -0.3882
      9 N1          3.4745    2.6481    0.3265 N.am      1 <0>        -0.2748
     10 N2          3.2247    1.2785    0.4835 N.pl3     1 <0>        -0.2268
     11 C7          1.9487    0.8002    0.3789 C.2       1 <0>         0.1570
     12 C8          0.9295    1.6471    0.1244 C.2       1 <0>        -0.4106
     13 C9         -0.3604    1.1382   -0.1507 C.2       1 <0>         0.3761
     14 O3         -0.5251   -0.0602   -0.2911 O.2       1 <0>        -0.4141
     15 N3         -1.4070    1.9800   -0.2632 N.am      1 <0>        -0.3143
     16 C10        -2.6895    1.4741   -0.4532 C.ar      1 <0>         0.1415
     17 C11        -2.8773    0.2988   -1.1689 C.ar      1 <0>        -0.1489
     18 C12        -4.1495   -0.2038   -1.3516 C.ar      1 <0>        -0.0853
     19 C13        -5.2482    0.4630   -0.8334 C.ar      1 <0>        -0.1656
     20 C14        -5.0818    1.6334   -0.1255 C.ar      1 <0>        -0.0857
     21 C15        -3.7998    2.1519    0.0723 C.ar      1 <0>        -0.1861
     22 C16        -3.6146    3.4046    0.8287 C.2       1 <0>         0.3659
     23 O4         -2.5078    3.8988    0.9248 O.2       1 <0>        -0.4002
     24 N4         -4.6722    4.0014    1.4133 N.am      1 <0>        -0.4243
     25 C17         1.6800   -0.6729    0.5478 C.3       1 <0>        -0.1799
     26 H1          7.9841    4.2308   -0.3360 H         1 <0>         0.1057
     27 H2          8.1869    5.2311    1.1222 H         1 <0>         0.0905
     28 H3          7.3758    3.6506    1.2329 H         1 <0>         0.1353
     29 H4          2.9479    5.4948   -0.1526 H         1 <0>         0.1586
     30 H5          4.2914    7.7390   -0.2722 H         1 <0>         0.2034
     31 H6          2.7419    3.2569    0.1435 H         1 <0>         0.2638
     32 H7          3.9574    0.6697    0.6665 H         1 <0>         0.2791
     33 H8          1.0992    2.7137    0.1308 H         1 <0>         0.1235
     34 H9         -1.2664    2.9383   -0.2116 H         1 <0>         0.2655
     35 H10        -2.0264   -0.2246   -1.5794 H         1 <0>         0.1775
     36 H11        -4.2901   -1.1203   -1.9053 H         1 <0>         0.1341
     37 H12        -6.2400    0.0635   -0.9855 H         1 <0>         0.1300
     38 H13        -5.9415    2.1495    0.2756 H         1 <0>         0.1216
     39 H14        -5.5552    3.6071    1.3367 H         1 <0>         0.2190
     40 H15        -4.5505    4.8252    1.9107 H         1 <0>         0.2300
     41 H16         1.6542   -1.1521   -0.4308 H         1 <0>         0.1165
     42 H17         2.4707   -1.1198    1.1505 H         1 <0>         0.0682
     43 H18         0.7206   -0.8125    1.0461 H         1 <0>         0.1423
@<TRIPOS>BOND
     1    1    2 1
     2    1   26 1
     3    1   27 1
     4    1   28 1
     5    2    6 1
     6    2    3 2
     7    3    4 1
     8    3    7 1
     9    4    5 2
    10    4   29 1
    11    5    6 1
    12    5   30 1
    13    7    8 2
    14    7    9 am
    15    9   10 1
    16    9   31 1
    17   10   11 1
    18   10   32 1
    19   11   12 2
    20   11   25 1
    21   12   13 1
    22   12   33 1
    23   13   14 2
    24   13   15 am
    25   15   16 1
    26   15   34 1
    27   16   21 ar
    28   16   17 ar
    29   17   18 ar
    30   17   35 1
    31   18   19 ar
    32   18   36 1
    33   19   20 ar
    34   19   37 1
    35   20   21 ar
    36   20   38 1
    37   21   22 1
    38   22   23 2
    39   22   24 am
    40   24   39 1
    41   24   40 1
    42   25   41 1
    43   25   42 1
    44   25   43 1
@<TRIPOS>MOLECULE
ZINC02998512
   40    42     0     0     0
SMALL
USER_CHARGES

@<TRIPOS>ATOM
      1 C1         -9.0139    1.8508    1.0290 C.3       1 <0>        -0.1690
      2 C2         -7.5199    1.9618    0.8654 C.ar      1 <0>        -0.1182
      3 C3         -6.7513    0.8176    0.7516 C.ar      1 <0>        -0.0970
      4 C4         -5.3822    0.9158    0.6011 C.ar      1 <0>        -0.1648
      5 C5         -4.7769    2.1656    0.5646 C.ar      1 <0>         0.1027
      6 C6         -5.5509    3.3123    0.6850 C.ar      1 <0>        -0.1827
      7 C7         -6.9205    3.2072    0.8300 C.ar      1 <0>        -0.0497
      8 C8         -7.7619    4.4513    0.9544 C.3       1 <0>        -0.1746
      9 N1         -3.3905    2.2686    0.4128 N.am      1 <0>        -0.1765
     10 C9         -2.5533    1.2215    0.2877 C.2       1 <0>         0.3735
     11 O1         -2.8602    0.0442    0.2868 O.2       1 <0>        -0.3620
     12 C10        -1.1921    1.7752    0.1562 C.2       1 <0>        -0.3792
     13 C11        -0.0126    1.0758    0.0080 C.2       1 <0>         0.1963
     14 C12         1.2306    1.7910   -0.2810 C.ar      1 <0>        -0.2708
     15 C13         1.2372    2.8559   -1.1936 C.ar      1 <0>         0.0378
     16 C14         2.4110    3.5231   -1.4595 C.ar      1 <0>        -0.2841
     17 C15         3.5884    3.1483   -0.8297 C.ar      1 <0>         0.0087
     18 C16         3.5990    2.1024    0.0718 C.ar      1 <0>        -0.2557
     19 C17         2.4272    1.4194    0.3590 C.ar      1 <0>         0.2665
     20 N2          4.8627    1.7133    0.7370 N.pl3     1 <0>         0.5703
     21 O2          5.8919    2.3156    0.4891 O.2       1 <0>        -0.4567
     22 O3          4.8734    0.7910    1.5324 O.3       1 <0>        -0.3454
     23 C18        -1.3666    3.2397    0.2112 C.2       1 <0>         0.3655
     24 O4         -0.4883    4.0777    0.1338 O.2       1 <0>        -0.3428
     25 N3         -2.6845    3.4703    0.3634 N.am      1 <0>        -0.2993
     26 H1         -9.2604    1.7987    2.0895 H         1 <0>         0.0784
     27 H2         -9.4937    2.7239    0.5869 H         1 <0>         0.0765
     28 H3         -9.3681    0.9493    0.5290 H         1 <0>         0.0746
     29 H4         -7.2225   -0.1538    0.7800 H         1 <0>         0.1298
     30 H5         -4.7827    0.0219    0.5115 H         1 <0>         0.1874
     31 H6         -5.0828    4.2853    0.6615 H         1 <0>         0.1258
     32 H7         -7.8514    4.7257    2.0055 H         1 <0>         0.0829
     33 H8         -7.2896    5.2657    0.4051 H         1 <0>         0.0772
     34 H9         -8.7532    4.2621    0.5426 H         1 <0>         0.0804
     35 H10        -0.0074   -0.0002    0.1008 H         1 <0>         0.1559
     36 H11         0.3230    3.1515   -1.6870 H         1 <0>         0.1185
     37 H12         2.4154    4.3428   -2.1627 H         1 <0>         0.1144
     38 H13         4.5040    3.6789   -1.0458 H         1 <0>         0.1294
     39 H14        -3.0870    4.3503    0.4291 H         1 <0>         0.2553
     40 O5          2.4353    0.3958    1.2483 O.3       1 <0>        -0.4791
@<TRIPOS>BOND
     1    1    2 1
     2    1   26 1
     3    1   27 1
     4    1   28 1
     5    2    7 ar
     6    2    3 ar
     7    3    4 ar
     8    3   29 1
     9    4    5 ar
    10    4   30 1
    11    5    6 ar
    12    5    9 1
    13    6    7 ar
    14    6   31 1
    15    7    8 1
    16    8   32 1
    17    8   33 1
    18    8   34 1
    19    9   25 1
    20    9   10 am
    21   10   11 2
    22   10   12 1
    23   12   13 2
    24   12   23 1
    25   13   14 1
    26   13   35 1
    27   14   19 ar
    28   14   15 ar
    29   15   16 ar
    30   15   36 1
    31   16   17 ar
    32   16   37 1
    33   17   18 ar
    34   17   38 1
    35   18   19 ar
    36   18   20 1
    37   19   40 1
    38   20   21 2
    39   20   22 1
    40   23   24 2
    41   23   25 am
    42   25   39 1
@<TRIPOS>MOLECULE
ZINC03002481
   41    42     0     0     0
SMALL
USER_CHARGES

@<TRIPOS>ATOM
      1 C1          8.4227    3.6392   -0.7127 C.3       1 <0>        -0.1958
      2 C2          7.2441    4.3294   -0.0231 C.3       1 <0>        -0.1894
      3 C3          5.9790    3.5585   -0.2990 C.2       1 <0>         0.2996
      4 O1          6.0163    2.5556   -0.9802 O.2       1 <0>        -0.3514
      5 N1          4.8061    3.9834    0.2111 N.am      1 <0>        -0.3304
      6 C4          3.6494    3.2110    0.0453 C.ar      1 <0>         0.0528
      7 C5          2.4177    3.8315   -0.1176 C.ar      1 <0>        -0.1458
      8 C6          1.2778    3.0704   -0.2815 C.ar      1 <0>        -0.1065
      9 C7          1.3627    1.6841   -0.2836 C.ar      1 <0>         0.0373
     10 C8          2.5938    1.0636   -0.1150 C.ar      1 <0>        -0.1405
     11 C9          3.7344    1.8249    0.0432 C.ar      1 <0>        -0.1104
     12 N2          0.2067    0.9122   -0.4499 N.am      1 <0>        -0.3197
     13 C10        -0.7804    1.3429   -1.2603 C.2       1 <0>         0.3491
     14 O2         -0.7046    2.4387   -1.7812 O.2       1 <0>        -0.3444
     15 C11        -1.9552    0.4829   -1.5156 C.ar      1 <0>        -0.1433
     16 C12        -2.0427   -0.7784   -0.9234 C.ar      1 <0>        -0.0623
     17 C13        -3.1446   -1.5734   -1.1609 C.ar      1 <0>        -0.1477
     18 C14        -4.1561   -1.1283   -1.9938 C.ar      1 <0>         0.0149
     19 C15        -4.0729    0.1181   -2.5883 C.ar      1 <0>        -0.1275
     20 C16        -2.9791    0.9258   -2.3542 C.ar      1 <0>        -0.0047
     21 N3         -5.1601    0.5864   -3.4770 N.pl3     1 <0>         0.5519
     22 O3         -5.0542    1.6504   -4.0602 O.2       1 <0>        -0.3436
     23 O4         -6.1605   -0.0924   -3.6252 O.3       1 <0>        -0.3612
     24 C17        -5.3538   -2.0051   -2.2541 C.3       1 <0>        -0.2046
     25 H1          8.5246    2.6242   -0.3287 H         1 <0>         0.0895
     26 H2          8.2452    3.6048   -1.7876 H         1 <0>         0.0927
     27 H3          9.3377    4.1968   -0.5132 H         1 <0>         0.0732
     28 H4          7.1422    5.3444   -0.4072 H         1 <0>         0.1002
     29 H5          7.4216    4.3638    1.0518 H         1 <0>         0.0996
     30 H6          4.7630    4.8240    0.6932 H         1 <0>         0.2317
     31 H7          2.3517    4.9095   -0.1163 H         1 <0>         0.1354
     32 H8          0.3199    3.5530   -0.4086 H         1 <0>         0.1668
     33 H9          2.6593   -0.0144   -0.1118 H         1 <0>         0.1323
     34 H10         4.6923    1.3424    0.1699 H         1 <0>         0.1614
     35 H11         0.1144    0.0693    0.0212 H         1 <0>         0.2307
     36 H12        -1.2515   -1.1290   -0.2773 H         1 <0>         0.1363
     37 H13        -3.2156   -2.5475   -0.6999 H         1 <0>         0.1517
     38 H14        -2.9152    1.8985   -2.8192 H         1 <0>         0.1908
     39 H15        -5.2193   -2.5332   -3.1981 H         1 <0>         0.1091
     40 H16        -5.4576   -2.7280   -1.4449 H         1 <0>         0.0828
     41 H17        -6.2509   -1.3883   -2.3075 H         1 <0>         0.1395
@<TRIPOS>BOND
     1    1    2 1
     2    1   25 1
     3    1   26 1
     4    1   27 1
     5    2    3 1
     6    2   28 1
     7    2   29 1
     8    3    4 2
     9    3    5 am
    10    5    6 1
    11    5   30 1
    12    6   11 ar
    13    6    7 ar
    14    7    8 ar
    15    7   31 1
    16    8    9 ar
    17    8   32 1
    18    9   10 ar
    19    9   12 1
    20   10   11 ar
    21   10   33 1
    22   11   34 1
    23   12   13 am
    24   12   35 1
    25   13   14 2
    26   13   15 1
    27   15   20 ar
    28   15   16 ar
    29   16   17 ar
    30   16   36 1
    31   17   18 ar
    32   17   37 1
    33   18   19 ar
    34   18   24 1
    35   19   20 ar
    36   19   21 1
    37   20   38 1
    38   21   22 2
    39   21   23 1
    40   24   39 1
    41   24   40 1
    42   24   41 1
@<TRIPOS>MOLECULE
ZINC03015596
   45    48     0     0     0
SMALL
USER_CHARGES

@<TRIPOS>ATOM
      1 C1         -2.9214    4.2119    1.3174 C.3       1 <0>        -0.0631
      2 O1         -2.4225    3.8017    0.0427 O.3       1 <0>        -0.2119
      3 C2         -1.2360    3.1380    0.0287 C.ar      1 <0>         0.1052
      4 C3         -0.5700    2.8831    1.2188 C.ar      1 <0>        -0.2182
      5 C4          0.6375    2.2137    1.2048 C.ar      1 <0>        -0.0619
      6 C5          1.1801    1.7864    0.0004 C.ar      1 <0>         0.0107
      7 C6          0.5107    2.0371   -1.1898 C.ar      1 <0>        -0.0650
      8 C7         -0.6943    2.7112   -1.1751 C.ar      1 <0>        -0.1556
      9 N1          2.4042    1.1022   -0.0140 N.am      1 <0>        -0.2568
     10 C8          2.3980   -0.2403    0.0881 C.2       1 <0>         0.3589
     11 O2          1.3415   -0.8346    0.1899 O.2       1 <0>        -0.3302
     12 C9          3.6607   -0.9917    0.0719 C.ar      1 <0>        -0.1544
     13 C10         3.6974   -2.3761    0.1716 C.ar      1 <0>        -0.0196
     14 C11         4.9139   -3.0439    0.1575 C.ar      1 <0>        -0.1680
     15 C12         6.1052   -2.3617    0.0459 C.ar      1 <0>        -0.0634
     16 C13         6.1048   -0.9636   -0.0563 C.ar      1 <0>        -0.1148
     17 C14         4.8745   -0.2766   -0.0428 C.ar      1 <0>         0.0596
     18 C15         4.8425    1.1344   -0.1427 C.ar      1 <0>        -0.2206
     19 C16         6.0387    1.8370   -0.2551 C.ar      1 <0>         0.0310
     20 C17         7.2465    1.1635   -0.2699 C.ar      1 <0>        -0.2667
     21 C18         7.3027   -0.2192   -0.1723 C.ar      1 <0>         0.1766
     22 N2          8.5237   -0.8669   -0.1877 N.pl3     1 <0>        -0.3430
     23 C19         9.7619   -0.0932   -0.3079 C.3       1 <0>        -0.0046
     24 C20        10.9603   -1.0443   -0.3001 C.3       1 <0>        -0.0188
     25 O3         10.9182   -1.8733   -1.4632 O.3       1 <0>        -0.3528
     26 C21         3.5426    1.8122   -0.1239 C.2       1 <0>         0.3646
     27 O4          3.4924    3.0251   -0.2087 O.2       1 <0>        -0.3365
     28 H1         -3.8720    4.7289    1.1862 H         1 <0>         0.1070
     29 H2         -3.0684    3.3358    1.9490 H         1 <0>         0.0688
     30 H3         -2.2044    4.8838    1.7891 H         1 <0>         0.0689
     31 H4         -0.9944    3.2116    2.1561 H         1 <0>         0.1370
     32 H5          1.1577    2.0186    2.1309 H         1 <0>         0.1376
     33 H6          0.9321    1.7046   -2.1269 H         1 <0>         0.1418
     34 H7         -1.2153    2.9060   -2.1008 H         1 <0>         0.1461
     35 H8          2.7772   -2.9345    0.2601 H         1 <0>         0.1575
     36 H9          4.9267   -4.1210    0.2359 H         1 <0>         0.1373
     37 H10         7.0393   -2.9037    0.0368 H         1 <0>         0.1271
     38 H11         6.0236    2.9142   -0.3319 H         1 <0>         0.1559
     39 H12         8.1645    1.7254   -0.3582 H         1 <0>         0.1377
     40 H13         8.5606   -1.8338   -0.1190 H         1 <0>         0.2400
     41 H14         9.7500    0.4686   -1.2419 H         1 <0>         0.1030
     42 H15         9.8412    0.5982    0.5310 H         1 <0>         0.0935
     43 H16        11.8838   -0.4651   -0.2999 H         1 <0>         0.0766
     44 H17        10.9229   -1.6686    0.5926 H         1 <0>         0.0660
     45 H18        11.6497   -2.5027   -1.5243 H         1 <0>         0.2175
@<TRIPOS>BOND
     1    1    2 1
     2    1   28 1
     3    1   29 1
     4    1   30 1
     5    2    3 1
     6    3    8 ar
     7    3    4 ar
     8    4    5 ar
     9    4   31 1
    10    5    6 ar
    11    5   32 1
    12    6    7 ar
    13    6    9 1
    14    7    8 ar
    15    7   33 1
    16    8   34 1
    17    9   26 am
    18    9   10 am
    19   10   11 2
    20   10   12 1
    21   12   17 ar
    22   12   13 ar
    23   13   14 ar
    24   13   35 1
    25   14   15 ar
    26   14   36 1
    27   15   16 ar
    28   15   37 1
    29   16   21 ar
    30   16   17 ar
    31   17   18 ar
    32   18   19 ar
    33   18   26 1
    34   19   20 ar
    35   19   38 1
    36   20   21 ar
    37   20   39 1
    38   21   22 1
    39   22   23 1
    40   22   40 1
    41   23   24 1
    42   23   41 1
    43   23   42 1
    44   24   25 1
    45   24   43 1
    46   24   44 1
    47   25   45 1
    48   26   27 2
@<TRIPOS>MOLECULE
ZINC03026374
   42    45     0     0     0
SMALL
USER_CHARGES

@<TRIPOS>ATOM
      1 C1          4.1283    0.1338   -1.2346 C.ar      1 <0>        -0.1355
      2 C2          4.7365   -0.2245   -0.0454 C.ar      1 <0>        -0.1058
      3 C3          4.1573    0.1178    1.1620 C.ar      1 <0>        -0.1516
      4 C4          2.9670    0.8272    1.1834 C.ar      1 <0>         0.0982
      5 C5          2.3515    1.1841   -0.0141 C.ar      1 <0>         0.0269
      6 C6          2.9386    0.8366   -1.2219 C.ar      1 <0>        -0.0888
      7 N1          1.1443    1.8979    0.0013 N.am      1 <0>        -0.2537
      8 C7         -0.0144    1.2122    0.0087 C.2       1 <0>         0.3615
      9 O1          0.0021   -0.0041    0.0020 O.2       1 <0>        -0.3426
     10 C8         -1.2989    1.9258    0.0187 C.ar      1 <0>        -0.1550
     11 C9         -2.5153    1.2564    0.0305 C.ar      1 <0>        -0.0199
     12 C10        -3.7044    1.9718    0.0452 C.ar      1 <0>        -0.1691
     13 C11        -3.7126    3.3492    0.0527 C.ar      1 <0>        -0.0618
     14 C12        -2.5026    4.0568    0.0459 C.ar      1 <0>        -0.1147
     15 C13        -1.2900    3.3392    0.0314 C.ar      1 <0>         0.0604
     16 C14        -0.0529    4.0260    0.0233 C.ar      1 <0>        -0.2174
     17 C15        -0.0460    5.4178    0.0307 C.ar      1 <0>         0.0322
     18 C16        -1.2357    6.1228    0.0450 C.ar      1 <0>        -0.2658
     19 C17        -2.4603    5.4713    0.0527 C.ar      1 <0>         0.1759
     20 N2         -3.6344    6.2007    0.0665 N.pl3     1 <0>        -0.3433
     21 C18        -3.5871    7.6649    0.0735 C.3       1 <0>        -0.0046
     22 C19        -5.0123    8.2211    0.0886 C.3       1 <0>        -0.0188
     23 O2         -5.6525    7.8577    1.3134 O.3       1 <0>        -0.3528
     24 C20         1.1867    3.2433    0.0077 C.2       1 <0>         0.3697
     25 O3          2.2615    3.8140    0.0001 O.2       1 <0>        -0.3291
     26 O4          2.3991    1.1700    2.3701 O.3       1 <0>        -0.2868
     27 H1          4.5844   -0.1362   -2.1756 H         1 <0>         0.1337
     28 H2          5.6665   -0.7735   -0.0602 H         1 <0>         0.1323
     29 H3          4.6347   -0.1638    2.0889 H         1 <0>         0.1422
     30 H4          2.4659    1.1151   -2.1521 H         1 <0>         0.1402
     31 H5         -2.5362    0.1766    0.0242 H         1 <0>         0.1563
     32 H6         -4.6430    1.4375    0.0506 H         1 <0>         0.1372
     33 H7         -4.6510    3.8838    0.0635 H         1 <0>         0.1273
     34 H8          0.8936    5.9501    0.0247 H         1 <0>         0.1569
     35 H9         -1.2107    7.2025    0.0506 H         1 <0>         0.1379
     36 H10        -4.4896    5.7430    0.0716 H         1 <0>         0.2397
     37 H11        -3.0541    8.0069    0.9607 H         1 <0>         0.1032
     38 H12        -3.0695    8.0160   -0.8192 H         1 <0>         0.0934
     39 H13        -4.9793    9.3074    0.0043 H         1 <0>         0.0767
     40 H14        -5.5723    7.8084   -0.7505 H         1 <0>         0.0659
     41 H15        -6.5616    8.1778    1.3921 H         1 <0>         0.2174
     42 H16         1.7853    0.5087    2.7179 H         1 <0>         0.2320
@<TRIPOS>BOND
     1    1    6 ar
     2    1    2 ar
     3    1   27 1
     4    2    3 ar
     5    2   28 1
     6    3    4 ar
     7    3   29 1
     8    4    5 ar
     9    4   26 1
    10    5    6 ar
    11    5    7 1
    12    6   30 1
    13    7   24 am
    14    7    8 am
    15    8    9 2
    16    8   10 1
    17   10   15 ar
    18   10   11 ar
    19   11   12 ar
    20   11   31 1
    21   12   13 ar
    22   12   32 1
    23   13   14 ar
    24   13   33 1
    25   14   19 ar
    26   14   15 ar
    27   15   16 ar
    28   16   17 ar
    29   16   24 1
    30   17   18 ar
    31   17   34 1
    32   18   19 ar
    33   18   35 1
    34   19   20 1
    35   20   21 1
    36   20   36 1
    37   21   22 1
    38   21   37 1
    39   21   38 1
    40   22   23 1
    41   22   39 1
    42   22   40 1
    43   23   41 1
    44   24   25 2
    45   26   42 1
@<TRIPOS>MOLECULE
ZINC03030062
   42    44     0     0     0
SMALL
USER_CHARGES

@<TRIPOS>ATOM
      1 C1          2.7809   -0.8233    6.7978 C.3       1 <0>        -0.1336
      2 C2          1.6430   -0.0435    6.1910 C.2       1 <0>        -0.0908
      3 C3          1.3921    0.1266    4.8730 C.2       1 <0>        -0.2355
      4 C4          0.2216    0.9306    4.8481 C.2       1 <0>         0.0029
      5 N1         -0.0934    1.1554    6.0967 N.2       1 <0>        -0.0797
      6 O1          0.6821    0.6176    6.8526 O.3       1 <0>         0.0464
      7 N2         -0.4531    1.3927    3.7179 N.am      1 <0>        -0.2874
      8 C5          0.0000    1.0800    2.4877 C.2       1 <0>         0.3154
      9 O2          0.9943    0.3969    2.3633 O.2       1 <0>        -0.3591
     10 C6         -0.7288    1.5792    1.2668 C.3       1 <0>        -0.2106
     11 C7         -0.0127    1.0858    0.0080 C.3       1 <0>         0.0164
     12 N3         -0.7213    1.5711   -1.1789 N.am      1 <0>        -0.2316
     13 C8         -1.7701    0.8828   -1.6606 C.2       1 <0>         0.3135
     14 O3         -2.1335   -0.1209   -1.0848 O.2       1 <0>        -0.3702
     15 C9         -2.5032    1.3256   -2.8933 C.3       1 <0>        -0.1219
     16 C10        -2.1984    2.7571   -3.2240 C.2       1 <0>        -0.2767
     17 C11        -1.1586    3.3957   -2.7002 C.2       1 <0>         0.0975
     18 N4         -0.3066    2.7541   -1.8041 N.pl3     1 <0>        -0.2844
     19 C12        -0.9047    4.8078   -3.0682 C.ar      1 <0>        -0.0419
     20 C13         0.1809    5.4898   -2.5198 C.ar      1 <0>        -0.1233
     21 C14         0.4153    6.8037   -2.8706 C.ar      1 <0>        -0.1221
     22 C15        -0.4305    7.4476   -3.7558 C.ar      1 <0>        -0.1213
     23 C16        -1.5122    6.7779   -4.2991 C.ar      1 <0>        -0.1225
     24 C17        -1.7538    5.4623   -3.9600 C.ar      1 <0>        -0.1090
     25 H1          3.6366   -0.1639    6.9428 H         1 <0>         0.0977
     26 H2          2.4696   -1.2315    7.7594 H         1 <0>         0.0954
     27 H3          3.0595   -1.6385    6.1301 H         1 <0>         0.1023
     28 H4          1.9522   -0.2591    4.0340 H         1 <0>         0.2075
     29 H5         -1.2484    1.9391    3.8174 H         1 <0>         0.2456
     30 H6         -0.7436    2.6691    1.2728 H         1 <0>         0.1086
     31 H7         -1.7514    1.2020    1.2746 H         1 <0>         0.1301
     32 H8          0.0021   -0.0041    0.0020 H         1 <0>         0.1412
     33 H9          1.0099    1.4631    0.0003 H         1 <0>         0.1018
     34 H10        -2.2063    0.6947   -3.7311 H         1 <0>         0.1175
     35 H11        -3.5754    1.2187   -2.7287 H         1 <0>         0.1188
     36 H12        -2.8452    3.2847   -3.9092 H         1 <0>         0.1420
     37 H13         0.5705    3.1236   -1.6169 H         1 <0>         0.2564
     38 H14         0.8394    4.9895   -1.8252 H         1 <0>         0.1238
     39 H15         1.2582    7.3317   -2.4497 H         1 <0>         0.1332
     40 H16        -0.2454    8.4772   -4.0242 H         1 <0>         0.1330
     41 H17        -2.1691    7.2858   -4.9896 H         1 <0>         0.1348
     42 H18        -2.5986    4.9404   -4.3848 H         1 <0>         0.1397
@<TRIPOS>BOND
     1    1    2 1
     2    1   25 1
     3    1   26 1
     4    1   27 1
     5    2    6 1
     6    2    3 2
     7    3    4 1
     8    3   28 1
     9    4    5 2
    10    4    7 1
    11    5    6 1
    12    7    8 am
    13    7   29 1
    14    8    9 2
    15    8   10 1
    16   10   11 1
    17   10   30 1
    18   10   31 1
    19   11   12 1
    20   11   32 1
    21   11   33 1
    22   12   18 1
    23   12   13 am
    24   13   14 2
    25   13   15 1
    26   15   16 1
    27   15   34 1
    28   15   35 1
    29   16   17 2
    30   16   36 1
    31   17   18 1
    32   17   19 1
    33   18   37 1
    34   19   24 ar
    35   19   20 ar
    36   20   21 ar
    37   20   38 1
    38   21   22 ar
    39   21   39 1
    40   22   23 ar
    41   22   40 1
    42   23   24 ar
    43   23   41 1
    44   24   42 1
@<TRIPOS>MOLECULE
ZINC03033338
   39    41     0     0     0
SMALL
USER_CHARGES

@<TRIPOS>ATOM
      1 C1          2.1825   -7.9144    8.2059 C.3       1 <0>        -0.0631
      2 O1          3.0409   -7.0625    7.4446 O.3       1 <0>        -0.2875
      3 C2          3.3397   -5.8189    8.0822 C.3       1 <0>        -0.0350
      4 C3          4.2605   -4.9927    7.1821 C.3       1 <0>        -0.0003
      5 N1          3.5495   -4.6364    5.9517 N.am      1 <0>        -0.3801
      6 C4          4.1679   -3.9043    5.0040 C.2       1 <0>         0.3433
      7 O2          5.3159   -3.5394    5.1702 O.2       1 <0>        -0.3665
      8 C5          3.4520   -3.5456    3.7653 C.ar      1 <0>        -0.0886
      9 C6          2.1327   -3.9645    3.5737 C.ar      1 <0>        -0.1260
     10 C7          1.4707   -3.6244    2.4155 C.ar      1 <0>        -0.0765
     11 C8          2.1079   -2.8672    1.4372 C.ar      1 <0>        -0.2306
     12 C9          3.4245   -2.4458    1.6147 C.ar      1 <0>         0.0760
     13 C10         4.0921   -2.7873    2.7832 C.ar      1 <0>        -0.0994
     14 N2          4.0990   -1.6935    0.6626 N.am      1 <0>        -0.2950
     15 C11         3.7134   -0.6529   -0.0269 C.2       1 <0>         0.3535
     16 O3          4.5459   -0.1858   -0.7799 O.2       1 <0>        -0.3647
     17 C12         2.4200    0.0278   -0.0180 C.ar      1 <0>        -0.0820
     18 C13         2.3807    1.4289   -0.0112 C.ar      1 <0>        -0.0765
     19 C14         1.1722    2.0880    0.0021 C.ar      1 <0>        -0.1198
     20 C15        -0.0166    1.3760    0.0096 C.ar      1 <0>        -0.1143
     21 C16         0.0021   -0.0041    0.0020 C.ar      1 <0>        -0.0930
     22 C17         1.2131   -0.6837   -0.0139 C.ar      1 <0>        -0.2042
     23 S1          1.2305   -2.4453   -0.0319 S.3       1 <0>         0.2504
     24 H1          2.0038   -8.8371    7.6538 H         1 <0>         0.1039
     25 H2          2.6551   -8.1475    9.1600 H         1 <0>         0.0586
     26 H3          1.2337   -7.4083    8.3844 H         1 <0>         0.0540
     27 H4          3.8363   -6.0086    9.0337 H         1 <0>         0.0798
     28 H5          2.4149   -5.2694    8.2582 H         1 <0>         0.0665
     29 H6          5.1461   -5.5775    6.9336 H         1 <0>         0.1097
     30 H7          4.5599   -4.0842    7.7047 H         1 <0>         0.1018
     31 H8          2.6338   -4.9274    5.8191 H         1 <0>         0.2300
     32 H9          1.6347   -4.5521    4.3308 H         1 <0>         0.1350
     33 H10         0.4509   -3.9467    2.2656 H         1 <0>         0.1501
     34 H11         5.1116   -2.4643    2.9334 H         1 <0>         0.1675
     35 H12         5.0044   -1.9891    0.4790 H         1 <0>         0.2481
     36 H13         3.3015    1.9932   -0.0168 H         1 <0>         0.1538
     37 H14         1.1505    3.1677    0.0067 H         1 <0>         0.1383
     38 H15        -0.9598    1.9021    0.0169 H         1 <0>         0.1369
     39 H16        -0.9262   -0.5561    0.0081 H         1 <0>         0.1460
@<TRIPOS>BOND
     1    1    2 1
     2    1   24 1
     3    1   25 1
     4    1   26 1
     5    2    3 1
     6    3    4 1
     7    3   27 1
     8    3   28 1
     9    4    5 1
    10    4   29 1
    11    4   30 1
    12    5    6 am
    13    5   31 1
    14    6    7 2
    15    6    8 1
    16    8   13 ar
    17    8    9 ar
    18    9   10 ar
    19    9   32 1
    20   10   11 ar
    21   10   33 1
    22   11   23 1
    23   11   12 ar
    24   12   13 ar
    25   12   14 1
    26   13   34 1
    27   14   15 am
    28   14   35 1
    29   15   16 2
    30   15   17 1
    31   17   22 ar
    32   17   18 ar
    33   18   19 ar
    34   18   36 1
    35   19   20 ar
    36   19   37 1
    37   20   21 ar
    38   20   38 1
    39   21   22 ar
    40   21   39 1
    41   22   23 1
@<TRIPOS>MOLECULE
ZINC03040096
   41    42     0     0     0
SMALL
USER_CHARGES

@<TRIPOS>ATOM
      1 C1         -3.7978   -4.7471   -0.8220 C.3       1 <0>        -0.1949
      2 C2         -2.3580   -4.2368   -0.7347 C.3       1 <0>        -0.1794
      3 C3         -2.3660   -2.7524   -0.4752 C.2       1 <0>         0.2971
      4 O1         -3.4196   -2.1607   -0.3704 O.2       1 <0>        -0.3712
      5 N1         -1.2024   -2.0822   -0.3596 N.am      1 <0>        -0.2772
      6 N2         -1.2099   -0.7021   -0.1184 N.pl3     1 <0>        -0.2528
      7 C4          0.0021   -0.0041    0.0020 C.2       1 <0>         0.1376
      8 C5          1.1670   -0.6582   -0.1138 C.2       1 <0>        -0.4539
      9 S1          2.6837    0.2385   -0.1238 S.3       1 <0>         0.3605
     10 C6          3.8252   -1.0930   -0.2930 C.2       1 <0>        -0.0125
     11 N3          5.1612   -0.8280   -0.3440 N.am      1 <0>        -0.2737
     12 H1          5.4884    0.1152   -0.2860 H         1 <0>         0.2551
     13 C7          6.0412   -1.8438   -0.4731 C.2       1 <0>         0.3307
     14 O2          7.2406   -1.6250   -0.5209 O.2       1 <0>        -0.3684
     15 C8          5.5492   -3.1583   -0.5519 C.2       1 <0>        -0.3106
     16 C9          4.2003   -3.3634   -0.4954 C.2       1 <0>         0.0653
     17 N4          3.3728   -2.3305   -0.3627 N.2       1 <0>        -0.2647
     18 C10         3.6485   -4.7633   -0.5773 C.3       1 <0>        -0.1672
     19 C11        -0.0058    1.4515    0.2564 C.ar      1 <0>        -0.0738
     20 C12         0.7865    1.9902    1.2723 C.ar      1 <0>        -0.1016
     21 C13         0.7776    3.3504    1.5015 C.ar      1 <0>        -0.1273
     22 C14        -0.0212    4.1794    0.7339 C.ar      1 <0>        -0.1105
     23 C15        -0.8127    3.6516   -0.2710 C.ar      1 <0>        -0.1280
     24 C16        -0.8099    2.2938   -0.5141 C.ar      1 <0>        -0.1032
     25 H2         -4.3147   -4.2388   -1.6359 H         1 <0>         0.0922
     26 H3         -3.7920   -5.8208   -1.0096 H         1 <0>         0.0751
     27 H4         -4.3124   -4.5452    0.1175 H         1 <0>         0.0924
     28 H5         -1.8434   -4.4387   -1.6741 H         1 <0>         0.1016
     29 H6         -1.8411   -4.7451    0.0793 H         1 <0>         0.1015
     30 H7         -0.3598   -2.5553   -0.4434 H         1 <0>         0.2581
     31 H8         -2.0525   -0.2289   -0.0346 H         1 <0>         0.2809
     32 H9          1.1755   -1.7346   -0.2011 H         1 <0>         0.1747
     33 H10         6.2272   -3.9926   -0.6552 H         1 <0>         0.1669
     34 H11         3.5708   -5.1825    0.4258 H         1 <0>         0.0976
     35 H12         2.6610   -4.7382   -1.0382 H         1 <0>         0.0919
     36 H13         4.3146   -5.3818   -1.1789 H         1 <0>         0.0931
     37 H14         1.4072    1.3437    1.8749 H         1 <0>         0.1498
     38 H15         1.3925    3.7688    2.2847 H         1 <0>         0.1373
     39 H16        -0.0272    5.2432    0.9201 H         1 <0>         0.1345
     40 H17        -1.4339    4.3043   -0.8664 H         1 <0>         0.1368
     41 H18        -1.4284    1.8831   -1.2984 H         1 <0>         0.1401
@<TRIPOS>BOND
     1    1    2 1
     2    1   25 1
     3    1   26 1
     4    1   27 1
     5    2    3 1
     6    2   28 1
     7    2   29 1
     8    3    4 2
     9    3    5 am
    10    5    6 1
    11    5   30 1
    12    6    7 1
    13    6   31 1
    14    7    8 2
    15    7   19 1
    16    8    9 1
    17    8   32 1
    18    9   10 1
    19   10   17 2
    20   10   11 1
    21   11   12 1
    22   11   13 am
    23   13   14 2
    24   13   15 1
    25   15   16 2
    26   15   33 1
    27   16   17 1
    28   16   18 1
    29   18   34 1
    30   18   35 1
    31   18   36 1
    32   19   24 ar
    33   19   20 ar
    34   20   21 ar
    35   20   37 1
    36   21   22 ar
    37   21   38 1
    38   22   23 ar
    39   22   39 1
    40   23   24 ar
    41   23   40 1
    42   24   41 1
@<TRIPOS>MOLECULE
ZINC03040096
   41    42     0     0     0
SMALL
USER_CHARGES

@<TRIPOS>ATOM
      1 C1         -3.7973   -4.7503   -0.8212 C.3       1 <0>        -0.1950
      2 C2         -2.3577   -4.2393   -0.7353 C.3       1 <0>        -0.1797
      3 C3         -2.3661   -2.7536   -0.4829 C.2       1 <0>         0.2979
      4 O1         -3.4199   -2.1617   -0.3817 O.2       1 <0>        -0.3597
      5 N1         -1.2028   -2.0827   -0.3696 N.am      1 <0>        -0.2824
      6 N2         -1.2107   -0.7014   -0.1350 N.pl3     1 <0>        -0.2483
      7 C4          0.0011   -0.0026   -0.0171 C.2       1 <0>         0.1726
      8 C5          1.1662   -0.6570   -0.1289 C.2       1 <0>        -0.5308
      9 S1          2.6827    0.2399   -0.1421 S.3       1 <0>         0.4282
     10 C6          3.8246   -1.0921   -0.3041 C.2       1 <0>        -0.0363
     11 N3          5.1606   -0.8271   -0.3554 N.2       1 <0>        -0.2593
     12 H1          2.3870   -2.4944   -0.3256 H         1 <0>         0.2440
     13 C7          6.0412   -1.8438   -0.4731 C.2       1 <0>         0.2981
     14 O2          7.2406   -1.6250   -0.5209 O.2       1 <0>        -0.3302
     15 C8          5.5486   -3.1574   -0.5635 C.2       1 <0>        -0.2806
     16 C9          4.1997   -3.3625   -0.5067 C.2       1 <0>         0.0162
     17 N4          3.3722   -2.3296   -0.3738 N.pl3     1 <0>        -0.2164
     18 C10         3.6476   -4.7619   -0.5948 C.3       1 <0>        -0.1828
     19 C11        -0.0073    1.4542    0.2304 C.ar      1 <0>        -0.0840
     20 C12         0.7842    1.9979    1.2443 C.ar      1 <0>        -0.0927
     21 C13         0.7748    3.3592    1.4670 C.ar      1 <0>        -0.1236
     22 C14        -0.0236    4.1843    0.6949 C.ar      1 <0>        -0.1038
     23 C15        -0.8143    3.6516   -0.3081 C.ar      1 <0>        -0.1281
     24 C16        -0.8110    2.2926   -0.5447 C.ar      1 <0>        -0.1003
     25 H2         -4.3137   -4.2459   -1.6379 H         1 <0>         0.0942
     26 H3         -3.7911   -5.8248   -1.0037 H         1 <0>         0.0777
     27 H4         -4.3126   -4.5440    0.1170 H         1 <0>         0.0942
     28 H5         -1.8423   -4.4455   -1.6733 H         1 <0>         0.1007
     29 H6         -1.8412   -4.7436    0.0815 H         1 <0>         0.0999
     30 H7         -0.3600   -2.5560   -0.4506 H         1 <0>         0.2453
     31 H8         -2.0535   -0.2280   -0.0541 H         1 <0>         0.2851
     32 H9          1.1750   -1.7338   -0.2111 H         1 <0>         0.1219
     33 H10         6.2263   -3.9913   -0.6717 H         1 <0>         0.1633
     34 H11         3.5707   -5.1859    0.4063 H         1 <0>         0.1001
     35 H12         2.6596   -4.7344   -1.0547 H         1 <0>         0.0746
     36 H13         4.3130   -5.3776   -1.2000 H         1 <0>         0.1120
     37 H14         1.4045    1.3544    1.8504 H         1 <0>         0.1522
     38 H15         1.3891    3.7814    2.2486 H         1 <0>         0.1420
     39 H16        -0.0299    5.2490    0.8760 H         1 <0>         0.1369
     40 H17        -1.4351    4.3013   -0.9070 H         1 <0>         0.1384
     41 H18        -1.4289    1.8781   -1.3275 H         1 <0>         0.1384
@<TRIPOS>BOND
     1    1    2 1
     2    1   25 1
     3    1   26 1
     4    1   27 1
     5    2    3 1
     6    2   28 1
     7    2   29 1
     8    3    4 2
     9    3    5 am
    10    5    6 1
    11    5   30 1
    12    6    7 1
    13    6   31 1
    14    7    8 2
    15    7   19 1
    16    8    9 1
    17    8   32 1
    18    9   10 1
    19   10   17 1
    20   10   11 2
    21   11   13 1
    22   12   17 1
    23   13   14 2
    24   13   15 1
    25   15   33 1
    26   15   16 2
    27   16   18 1
    28   16   17 1
    29   18   34 1
    30   18   35 1
    31   18   36 1
    32   19   24 ar
    33   19   20 ar
    34   20   21 ar
    35   20   37 1
    36   21   22 ar
    37   21   38 1
    38   22   23 ar
    39   22   39 1
    40   23   24 ar
    41   23   40 1
    42   24   41 1
@<TRIPOS>MOLECULE
ZINC03040096
   41    42     0     0     0
SMALL
USER_CHARGES

@<TRIPOS>ATOM
      1 C1         -3.7978   -4.7471   -0.8220 C.3       1 <0>        -0.1947
      2 C2         -2.3580   -4.2368   -0.7347 C.3       1 <0>        -0.1797
      3 C3         -2.3660   -2.7524   -0.4752 C.2       1 <0>         0.2956
      4 O1         -3.4196   -2.1607   -0.3704 O.2       1 <0>        -0.3741
      5 N1         -1.2024   -2.0822   -0.3596 N.am      1 <0>        -0.2744
      6 N2         -1.2099   -0.7021   -0.1184 N.pl3     1 <0>        -0.2586
      7 C4          0.0021   -0.0041    0.0020 C.2       1 <0>         0.1251
      8 C5          1.1670   -0.6582   -0.1138 C.2       1 <0>        -0.4616
      9 S1          2.6837    0.2385   -0.1238 S.3       1 <0>         0.4171
     10 C6          3.8252   -1.0930   -0.2930 C.ar      1 <0>        -0.0354
     11 N3          5.1605   -0.8271   -0.3552 N.ar      1 <0>        -0.2563
     12 H1          7.7327   -2.4884   -0.6324 H         1 <0>         0.2653
     13 C7          6.0405   -1.8429   -0.4846 C.ar      1 <0>         0.2315
     14 O2          7.2397   -1.6237   -0.5371 O.3       1 <0>        -0.1722
     15 C8          5.5496   -3.1587   -0.5464 C.ar      1 <0>        -0.4084
     16 C9          4.2010   -3.3642   -0.4845 C.ar      1 <0>         0.1010
     17 N4          3.3731   -2.3309   -0.3574 N.ar      1 <0>        -0.2811
     18 C10         3.6495   -4.7646   -0.5604 C.3       1 <0>        -0.1709
     19 C11        -0.0058    1.4515    0.2564 C.ar      1 <0>        -0.0676
     20 C12         0.7865    1.9902    1.2723 C.ar      1 <0>        -0.0988
     21 C13         0.7776    3.3504    1.5015 C.ar      1 <0>        -0.1266
     22 C14        -0.0212    4.1794    0.7339 C.ar      1 <0>        -0.1133
     23 C15        -0.8127    3.6516   -0.2710 C.ar      1 <0>        -0.1299
     24 C16        -0.8099    2.2938   -0.5141 C.ar      1 <0>        -0.1054
     25 H2         -4.3147   -4.2388   -1.6359 H         1 <0>         0.0920
     26 H3         -3.7920   -5.8208   -1.0096 H         1 <0>         0.0732
     27 H4         -4.3124   -4.5452    0.1175 H         1 <0>         0.0922
     28 H5         -1.8434   -4.4387   -1.6741 H         1 <0>         0.1003
     29 H6         -1.8411   -4.7451    0.0793 H         1 <0>         0.1001
     30 H7         -0.3598   -2.5553   -0.4434 H         1 <0>         0.2574
     31 H8         -2.0525   -0.2289   -0.0346 H         1 <0>         0.2786
     32 H9          1.1755   -1.7346   -0.2011 H         1 <0>         0.1681
     33 H10         6.2278   -3.9932   -0.6455 H         1 <0>         0.1378
     34 H11         3.5710   -5.1792    0.4445 H         1 <0>         0.0979
     35 H12         2.6625   -4.7419   -1.0223 H         1 <0>         0.0969
     36 H13         4.3163   -5.3858   -1.1585 H         1 <0>         0.0870
     37 H14         1.4072    1.3437    1.8749 H         1 <0>         0.1515
     38 H15         1.3925    3.7688    2.2847 H         1 <0>         0.1363
     39 H16        -0.0272    5.2432    0.9201 H         1 <0>         0.1320
     40 H17        -1.4339    4.3043   -0.8664 H         1 <0>         0.1340
     41 H18        -1.4284    1.8831   -1.2984 H         1 <0>         0.1382
@<TRIPOS>BOND
     1    1    2 1
     2    1   25 1
     3    1   26 1
     4    1   27 1
     5    2    3 1
     6    2   28 1
     7    2   29 1
     8    3    4 2
     9    3    5 am
    10    5    6 1
    11    5   30 1
    12    6    7 1
    13    6   31 1
    14    7    8 2
    15    7   19 1
    16    8    9 1
    17    8   32 1
    18    9   10 1
    19   10   17 ar
    20   10   11 ar
    21   11   13 ar
    22   12   14 1
    23   13   14 1
    24   13   15 ar
    25   15   33 1
    26   15   16 ar
    27   16   18 1
    28   16   17 ar
    29   18   34 1
    30   18   35 1
    31   18   36 1
    32   19   24 ar
    33   19   20 ar
    34   20   21 ar
    35   20   37 1
    36   21   22 ar
    37   21   38 1
    38   22   23 ar
    39   22   39 1
    40   23   24 ar
    41   23   40 1
    42   24   41 1
@<TRIPOS>MOLECULE
ZINC03044893
   42    45     0     0     0
SMALL
USER_CHARGES

@<TRIPOS>ATOM
      1 C1          5.0851    1.9080   -4.4271 C.3       1 <0>        -0.2347
      2 C2          5.7986    1.5933   -3.1376 C.2       1 <0>         0.3023
      3 O1          6.1234    0.4518   -2.8871 O.2       1 <0>        -0.3551
      4 N1          6.0758    2.5803   -2.2627 N.am      1 <0>        -0.3294
      5 C3          6.6634    2.2770   -1.0279 C.ar      1 <0>         0.1047
      6 C4          7.5743    1.2361   -0.9281 C.ar      1 <0>        -0.1403
      7 C5          8.1530    0.9385    0.2914 C.ar      1 <0>        -0.0796
      8 C6          7.8264    1.6757    1.4153 C.ar      1 <0>        -0.1580
      9 C7          6.9238    2.7180    1.3248 C.ar      1 <0>        -0.0570
     10 C8          6.3337    3.0209    0.1055 C.ar      1 <0>        -0.2972
     11 S1          5.1772    4.3450   -0.0120 S.3       1 <0>         0.2741
     12 C9          3.6698    3.4332   -0.0407 C.ar      1 <0>        -0.1603
     13 C10         3.6948    2.0445   -0.0719 C.ar      1 <0>        -0.1643
     14 C11         2.5280    1.3056   -0.0953 C.ar      1 <0>        -0.0090
     15 C12         1.2895    1.9437   -0.0865 C.ar      1 <0>        -0.1582
     16 C13         1.2384    3.3570   -0.0544 C.ar      1 <0>         0.0240
     17 C14         2.4277    4.1123   -0.0315 C.ar      1 <0>        -0.0495
     18 C15         2.3458    5.5110   -0.0008 C.ar      1 <0>        -0.0700
     19 C16         1.1144    6.1284    0.0066 C.ar      1 <0>        -0.1526
     20 C17        -0.0625    5.3932   -0.0158 C.ar      1 <0>        -0.0249
     21 C18        -0.0174    4.0059   -0.0460 C.ar      1 <0>        -0.1456
     22 C19        -1.2359    3.1848   -0.0710 C.2       1 <0>         0.3453
     23 O2         -2.3276    3.7214   -0.0643 O.2       1 <0>        -0.3500
     24 N2         -1.1498    1.8416   -0.1065 N.am      1 <0>        -0.2321
     25 C20         0.0303    1.1942   -0.1102 C.2       1 <0>         0.3630
     26 O3          0.0519   -0.0223   -0.1383 O.2       1 <0>        -0.3184
     27 N3         -2.3023    1.1089   -0.1348 N.3       1 <0>        -0.2205
     28 H1          4.8762    2.9767   -4.4754 H         1 <0>         0.0819
     29 H2          5.7147    1.6224   -5.2698 H         1 <0>         0.1154
     30 H3          4.1482    1.3524   -4.4689 H         1 <0>         0.1191
     31 H4          5.8685    3.5007   -2.4881 H         1 <0>         0.2461
     32 H5          7.8319    0.6582   -1.8033 H         1 <0>         0.1741
     33 H6          8.8627    0.1280    0.3669 H         1 <0>         0.1406
     34 H7          8.2818    1.4390    2.3655 H         1 <0>         0.1387
     35 H8          6.6745    3.2944    2.2034 H         1 <0>         0.1472
     36 H9          4.6457    1.5325   -0.0784 H         1 <0>         0.1602
     37 H10         2.5760    0.2270   -0.1198 H         1 <0>         0.1644
     38 H11         3.2478    6.1047    0.0167 H         1 <0>         0.1451
     39 H12         1.0638    7.2069    0.0300 H         1 <0>         0.1413
     40 H13        -1.0155    5.9014   -0.0097 H         1 <0>         0.1590
     41 H14        -3.1130    1.7097   -0.1287 H         1 <0>         0.1927
     42 H15        -2.3175    0.4893   -0.9310 H         1 <0>         0.1672
@<TRIPOS>BOND
     1    1    2 1
     2    1   28 1
     3    1   29 1
     4    1   30 1
     5    2    3 2
     6    2    4 am
     7    4    5 1
     8    4   31 1
     9    5   10 ar
    10    5    6 ar
    11    6    7 ar
    12    6   32 1
    13    7    8 ar
    14    7   33 1
    15    8    9 ar
    16    8   34 1
    17    9   10 ar
    18    9   35 1
    19   10   11 1
    20   11   12 1
    21   12   17 ar
    22   12   13 ar
    23   13   14 ar
    24   13   36 1
    25   14   15 ar
    26   14   37 1
    27   15   25 1
    28   15   16 ar
    29   16   21 ar
    30   16   17 ar
    31   17   18 ar
    32   18   19 ar
    33   18   38 1
    34   19   20 ar
    35   19   39 1
    36   20   21 ar
    37   20   40 1
    38   21   22 1
    39   22   23 2
    40   22   24 am
    41   24   25 am
    42   24   27 1
    43   25   26 2
    44   27   41 1
    45   27   42 1
@<TRIPOS>MOLECULE
ZINC03048129
   46    48     0     0     0
SMALL
USER_CHARGES

@<TRIPOS>ATOM
      1 C1         -8.5891    3.1297    0.0611 C.2       1 <0>        -0.3463
      2 C2         -8.5761    1.7959    0.0529 C.2       1 <0>         0.1070
      3 C3         -9.8511    1.0431    0.0544 C.ar      1 <0>        -0.0424
      4 C4         -9.8401   -0.3515    0.0401 C.ar      1 <0>        -0.1161
      5 C5        -11.0265   -1.0565    0.0515 C.ar      1 <0>        -0.1413
      6 C6        -12.2360   -0.3808    0.0657 C.ar      1 <0>         0.0541
      7 C7        -12.2482    1.0173    0.0655 C.ar      1 <0>         0.0589
      8 C8        -11.0687    1.7274    0.0643 C.ar      1 <0>        -0.1137
      9 O1        -13.4600    1.6308    0.0473 O.3       1 <0>        -0.2183
     10 C9        -14.1697    1.8257    1.2402 C.3       1 <0>         0.0044
     11 C10       -14.9120    0.6251    1.7922 C.3       1 <0>        -0.1952
     12 C11       -13.9243   -0.4076    2.3563 C.3       1 <0>        -0.2048
     13 C12       -13.8236   -1.5775    1.3500 C.3       1 <0>        -0.0088
     14 O2        -13.4126   -1.0544    0.0876 O.3       1 <0>        -0.2164
     15 N1         -7.3610    1.1101    0.0430 N.pl3     1 <0>        -0.2701
     16 N2         -6.1546    1.8225    0.0416 N.am      1 <0>        -0.2631
     17 C13        -4.9809    1.1600    0.0320 C.2       1 <0>         0.3428
     18 O3         -4.9691   -0.0554    0.0245 O.2       1 <0>        -0.3618
     19 C14        -3.7078    1.9117    0.0305 C.ar      1 <0>        -0.1237
     20 C15        -3.7179    3.3076    0.0386 C.ar      1 <0>        -0.0707
     21 C16        -2.5266    4.0029    0.0367 C.ar      1 <0>        -0.1393
     22 C17        -1.3232    3.3196    0.0321 C.ar      1 <0>        -0.0492
     23 C18        -1.3062    1.9364    0.0188 C.ar      1 <0>        -0.1182
     24 C19        -2.4908    1.2288    0.0205 C.ar      1 <0>        -0.0108
     25 N3         -0.0144    1.2138    0.0087 N.pl3     1 <0>         0.5484
     26 O4          0.0021   -0.0041    0.0020 O.2       1 <0>        -0.3427
     27 O5          1.0320    1.8371    0.0021 O.3       1 <0>        -0.3525
     28 H1         -9.5296    3.6605    0.0688 H         1 <0>         0.1343
     29 H2         -7.6591    3.6788    0.0600 H         1 <0>         0.1023
     30 H3         -8.8994   -0.8818    0.0245 H         1 <0>         0.1345
     31 H4        -11.0122   -2.1364    0.0452 H         1 <0>         0.1456
     32 H5        -11.0848    2.8073    0.0714 H         1 <0>         0.1527
     33 H6        -14.8939    2.6234    1.0754 H         1 <0>         0.1081
     34 H7        -13.4651    2.1650    1.9996 H         1 <0>         0.0582
     35 H8        -15.4960    0.1657    0.9948 H         1 <0>         0.1088
     36 H9        -15.5834    0.9515    2.5864 H         1 <0>         0.0905
     37 H10       -14.2867   -0.7776    3.3155 H         1 <0>         0.0921
     38 H11       -12.9446    0.0523    2.4850 H         1 <0>         0.0920
     39 H12       -14.7968   -2.0578    1.2482 H         1 <0>         0.1171
     40 H13       -13.0914   -2.3045    1.7012 H         1 <0>         0.0696
     41 H14        -7.3516    0.1402    0.0370 H         1 <0>         0.2770
     42 H15        -6.1641    2.7924    0.0475 H         1 <0>         0.2550
     43 H16        -4.6564    3.8420    0.0467 H         1 <0>         0.1369
     44 H17        -2.5330    5.0828    0.0430 H         1 <0>         0.1526
     45 H18        -0.3932    3.8687    0.0352 H         1 <0>         0.1697
     46 H19        -2.4762    0.1490    0.0139 H         1 <0>         0.1927
@<TRIPOS>BOND
     1    1    2 2
     2    1   28 1
     3    1   29 1
     4    2    3 1
     5    2   15 1
     6    3    8 ar
     7    3    4 ar
     8    4    5 ar
     9    4   30 1
    10    5    6 ar
    11    5   31 1
    12    6   14 1
    13    6    7 ar
    14    7    8 ar
    15    7    9 1
    16    8   32 1
    17    9   10 1
    18   10   11 1
    19   10   33 1
    20   10   34 1
    21   11   12 1
    22   11   35 1
    23   11   36 1
    24   12   13 1
    25   12   37 1
    26   12   38 1
    27   13   14 1
    28   13   39 1
    29   13   40 1
    30   15   16 1
    31   15   41 1
    32   16   17 am
    33   16   42 1
    34   17   18 2
    35   17   19 1
    36   19   24 ar
    37   19   20 ar
    38   20   21 ar
    39   20   43 1
    40   21   22 ar
    41   21   44 1
    42   22   23 ar
    43   22   45 1
    44   23   24 ar
    45   23   25 1
    46   24   46 1
    47   25   26 2
    48   25   27 1
@<TRIPOS>MOLECULE
ZINC03081892
   41    42     0     0     0
SMALL
USER_CHARGES

@<TRIPOS>ATOM
      1 C1          0.0654   -2.8332    2.5094 C.3       1 <0>        -0.1782
      2 C2          0.0417   -2.0803    1.2041 C.ar      1 <0>        -0.0344
      3 C3          0.0230   -0.7024    1.2032 C.ar      1 <0>        -0.1675
      4 C4          0.0021   -0.0041    0.0020 C.ar      1 <0>         0.0999
      5 C5         -0.0058   -0.6886   -1.2050 C.ar      1 <0>        -0.1392
      6 C6          0.0177   -2.0718   -1.2170 C.ar      1 <0>         0.1270
      7 C7          0.0393   -2.7787   -0.0057 C.ar      1 <0>        -0.0846
      8 C8          0.0598   -4.2516   -0.0094 C.2       1 <0>        -0.1100
      9 N1          0.0575   -4.8981   -1.1353 N.2       1 <0>         0.0242
     10 N2          0.0770   -6.2990   -1.1387 N.am      1 <0>        -0.3319
     11 C9          0.0746   -6.9701   -2.3075 C.2       1 <0>         0.3081
     12 O1          0.0556   -6.3611   -3.3566 O.2       1 <0>        -0.3214
     13 C10         0.0956   -8.4769   -2.3113 C.3       1 <0>        -0.0266
     14 N3          0.0885   -8.9620   -3.6936 N.am      1 <0>        -0.3711
     15 C11         0.1044  -10.2863   -3.9431 C.2       1 <0>         0.3949
     16 O2          0.1248  -11.0792   -3.0202 O.2       1 <0>        -0.3642
     17 C12         0.0973  -10.7719   -5.3270 C.2       1 <0>        -0.1202
     18 C13         0.1116  -12.0800   -5.7184 C.2       1 <0>        -0.1256
     19 C14         0.0970  -12.0814   -7.1219 C.2       1 <0>        -0.2357
     20 C15         0.0747  -10.7905   -7.5207 C.2       1 <0>        -0.0705
     21 O3          0.0695  -10.0046   -6.4363 O.3       1 <0>        -0.0498
     22 O4          0.0148   -2.7430   -2.3975 O.3       1 <0>        -0.2628
     23 C16        -0.0343    0.0753   -2.5037 C.3       1 <0>        -0.1659
     24 O5         -0.0163    1.3542    0.0095 O.3       1 <0>        -0.2899
     25 H1         -0.9565   -3.0287    2.8346 H         1 <0>         0.0912
     26 H2          0.5907   -3.7786    2.3741 H         1 <0>         0.0814
     27 H3          0.5789   -2.2369    3.2636 H         1 <0>         0.0882
     28 H4          0.0249   -0.1635    2.1391 H         1 <0>         0.1444
     29 H5          0.0768   -4.7938    0.9246 H         1 <0>         0.1190
     30 H6          0.0922   -6.7859   -0.2999 H         1 <0>         0.2072
     31 H7          0.9957   -8.8290   -1.8073 H         1 <0>         0.1139
     32 H8         -0.7840   -8.8538   -1.7894 H         1 <0>         0.1124
     33 H9          0.0723   -8.3300   -4.4293 H         1 <0>         0.2577
     34 H10         0.1308  -12.9458   -5.0730 H         1 <0>         0.1749
     35 H11         0.1026  -12.9508   -7.7627 H         1 <0>         0.1613
     36 H12         0.0587  -10.4489   -8.5451 H         1 <0>         0.2017
     37 H13        -0.8694   -2.9492   -2.7306 H         1 <0>         0.2415
     38 H14         0.9863    0.2732   -2.8313 H         1 <0>         0.0887
     39 H15        -0.5511   -0.5144   -3.2609 H         1 <0>         0.0877
     40 H16        -0.5588    1.0197   -2.3583 H         1 <0>         0.0923
     41 H17         0.8616    1.7595    0.0033 H         1 <0>         0.2321
@<TRIPOS>BOND
     1    1    2 1
     2    1   25 1
     3    1   26 1
     4    1   27 1
     5    2    7 ar
     6    2    3 ar
     7    3    4 ar
     8    3   28 1
     9    4    5 ar
    10    4   24 1
    11    5    6 ar
    12    5   23 1
    13    6    7 ar
    14    6   22 1
    15    7    8 1
    16    8    9 2
    17    8   29 1
    18    9   10 1
    19   10   11 am
    20   10   30 1
    21   11   12 2
    22   11   13 1
    23   13   14 1
    24   13   31 1
    25   13   32 1
    26   14   15 am
    27   14   33 1
    28   15   16 2
    29   15   17 1
    30   17   21 1
    31   17   18 2
    32   18   19 1
    33   18   34 1
    34   19   20 2
    35   19   35 1
    36   20   21 1
    37   20   36 1
    38   22   37 1
    39   23   38 1
    40   23   39 1
    41   23   40 1
    42   24   41 1
@<TRIPOS>MOLECULE
ZINC03099816
   42    43     0     0     0
SMALL
USER_CHARGES

@<TRIPOS>ATOM
      1 C1         -5.8264   13.3999    2.1305 C.3       1 <0>        -0.0452
      2 N1         -5.9279   12.5590    0.9351 N.pl3     1 <0>        -0.8573
      3 C2         -7.0340   11.6079    0.8004 C.3       1 <0>        -0.0481
      4 S1         -4.7923   12.6835   -0.2637 S.o2      1 <0>         2.7765
      5 O1         -4.2244   13.9813   -0.1519 O.2       1 <0>        -0.9141
      6 O2         -5.4097   12.2224   -1.4575 O.2       1 <0>        -0.9252
      7 N2         -3.5854   11.6066    0.0914 N.pl3     1 <0>        -0.8808
      8 C3         -3.8627   10.1681    0.0876 C.3       1 <0>        -0.0244
      9 C4         -2.5628    9.4059    0.0720 C.2       1 <0>         0.3137
     10 O3         -1.5081   10.0055    0.0648 O.2       1 <0>        -0.3106
     11 N3         -2.5718    8.0582    0.0661 N.am      1 <0>        -0.3334
     12 N4         -1.3633    7.3497    0.0516 N.2       1 <0>         0.0231
     13 C5         -1.3720    6.0500    0.0459 C.2       1 <0>        -0.1050
     14 C6         -0.1043    5.3066    0.0307 C.ar      1 <0>        -0.0830
     15 C7         -0.0956    3.8450    0.0237 C.ar      1 <0>        -0.0015
     16 C8         -1.2856    3.1073    0.0310 C.ar      1 <0>        -0.1287
     17 C9         -1.2340    1.7451    0.0174 C.ar      1 <0>        -0.1120
     18 C10        -0.0126    1.0758    0.0080 C.ar      1 <0>        -0.1325
     19 C11         1.1633    1.7624    0.0004 C.ar      1 <0>        -0.1035
     20 C12         1.1479    3.1676    0.0081 C.ar      1 <0>        -0.0513
     21 C13         2.3418    3.9102    0.0002 C.ar      1 <0>        -0.0863
     22 C14         2.3158    5.2691    0.0074 C.ar      1 <0>        -0.1592
     23 C15         1.1168    5.9805    0.0222 C.ar      1 <0>         0.1253
     24 O4          1.1380    7.3380    0.0281 O.3       1 <0>        -0.2665
     25 H1         -6.3671   14.3319    1.9660 H         1 <0>         0.0808
     26 H2         -6.2586   12.8745    2.9821 H         1 <0>         0.0772
     27 H3         -4.7780   13.6189    2.3327 H         1 <0>         0.0892
     28 H4         -6.6354   10.5975    0.7093 H         1 <0>         0.0584
     29 H5         -7.6742   11.6680    1.6805 H         1 <0>         0.0883
     30 H6         -7.6155   11.8506   -0.0891 H         1 <0>         0.0932
     31 H7         -2.6948   11.9283    0.3019 H         1 <0>         0.2667
     32 H8         -4.4444    9.9126   -0.7981 H         1 <0>         0.1173
     33 H9         -4.4277    9.9047    0.9818 H         1 <0>         0.0894
     34 H10        -3.4151    7.5789    0.0719 H         1 <0>         0.2042
     35 H11        -2.3109    5.5162    0.0524 H         1 <0>         0.1164
     36 H12        -2.2390    3.6145    0.0432 H         1 <0>         0.1290
     37 H13        -2.1526    1.1772    0.0187 H         1 <0>         0.1300
     38 H14         0.0021   -0.0041    0.0020 H         1 <0>         0.1312
     39 H15         2.1028    1.2298   -0.0118 H         1 <0>         0.1351
     40 H16         3.2908    3.3948   -0.0121 H         1 <0>         0.1361
     41 H17         3.2490    5.8126    0.0010 H         1 <0>         0.1439
     42 H18         1.1355    7.7352   -0.8536 H         1 <0>         0.2434
@<TRIPOS>BOND
     1    1    2 1
     2    1   25 1
     3    1   26 1
     4    1   27 1
     5    2    3 1
     6    2    4 1
     7    3   28 1
     8    3   29 1
     9    3   30 1
    10    4    5 2
    11    4    6 2
    12    4    7 1
    13    7    8 1
    14    7   31 1
    15    8    9 1
    16    8   32 1
    17    8   33 1
    18    9   10 2
    19    9   11 am
    20   11   12 1
    21   11   34 1
    22   12   13 2
    23   13   14 1
    24   13   35 1
    25   14   23 ar
    26   14   15 ar
    27   15   20 ar
    28   15   16 ar
    29   16   17 ar
    30   16   36 1
    31   17   18 ar
    32   17   37 1
    33   18   19 ar
    34   18   38 1
    35   19   20 ar
    36   19   39 1
    37   20   21 ar
    38   21   22 ar
    39   21   40 1
    40   22   23 ar
    41   22   41 1
    42   23   24 1
    43   24   42 1
@<TRIPOS>MOLECULE
ZINC03114015
   40    42     0     0     0
SMALL
USER_CHARGES

@<TRIPOS>ATOM
      1 C1          3.6917   -0.5997   -0.9542 C.3       1 <0>        -0.1745
      2 C2          2.3711    0.1178   -0.8430 C.ar      1 <0>        -0.0964
      3 C3          1.2307   -0.5853   -0.4993 C.ar      1 <0>        -0.0951
      4 C4          0.0191    0.0691   -0.3965 C.ar      1 <0>        -0.1576
      5 C5         -0.0536    1.4350   -0.6387 C.ar      1 <0>         0.0788
      6 C6          1.0934    2.1380   -0.9835 C.ar      1 <0>        -0.1697
      7 C7          2.3021    1.4773   -1.0851 C.ar      1 <0>        -0.0461
      8 C8          3.5472    2.2392   -1.4597 C.3       1 <0>        -0.1775
      9 N1         -1.2801    2.0997   -0.5410 N.am      1 <0>        -0.1693
     10 C9         -2.4484    1.5098   -0.2250 C.2       1 <0>         0.3616
     11 O1         -2.6220    0.3310    0.0211 O.2       1 <0>        -0.3324
     12 C10        -3.4775    2.5672   -0.2320 C.2       1 <0>        -0.2805
     13 C11        -4.8233    2.4299    0.0361 C.2       1 <0>         0.0812
     14 C12        -5.6704    3.6174    0.1564 C.ar      1 <0>        -0.1069
     15 C13        -6.9807    3.6009   -0.3439 C.ar      1 <0>        -0.0867
     16 C14        -7.7743    4.7191   -0.2286 C.ar      1 <0>        -0.1589
     17 C15        -7.2816    5.8660    0.3826 C.ar      1 <0>         0.0750
     18 C16        -5.9791    5.8914    0.8833 C.ar      1 <0>         0.0380
     19 C17        -5.1768    4.7742    0.7777 C.ar      1 <0>        -0.0624
     20 O2         -5.5024    7.0164    1.4804 O.3       1 <0>        -0.2679
     21 O3         -8.0701    6.9652    0.4934 O.3       1 <0>        -0.2761
     22 C18        -2.7555    3.8027   -0.5936 C.2       1 <0>         0.3502
     23 O4         -3.2358    4.9138   -0.7147 O.2       1 <0>        -0.3231
     24 N2         -1.4634    3.4643   -0.7634 N.am      1 <0>        -0.2814
     25 H1          3.8253   -0.9586   -1.9747 H         1 <0>         0.0867
     26 H2          4.5003    0.0863   -0.7016 H         1 <0>         0.0841
     27 H3          3.7047   -1.4455   -0.2669 H         1 <0>         0.0817
     28 H4          1.2880   -1.6472   -0.3108 H         1 <0>         0.1388
     29 H5         -0.8710   -0.4804   -0.1278 H         1 <0>         0.1811
     30 H6          1.0402    3.1999   -1.1728 H         1 <0>         0.1263
     31 H7          3.6624    2.2366   -2.5436 H         1 <0>         0.0894
     32 H8          3.4647    3.2668   -1.1056 H         1 <0>         0.0808
     33 H9          4.4150    1.7654   -1.0009 H         1 <0>         0.0887
     34 H10        -5.2521    1.4462    0.1574 H         1 <0>         0.1577
     35 H11        -7.3663    2.7114   -0.8197 H         1 <0>         0.1373
     36 H12        -8.7831    4.7053   -0.6138 H         1 <0>         0.1464
     37 H13        -4.1701    4.7914    1.1686 H         1 <0>         0.1596
     38 H14        -5.6591    7.0522    2.4340 H         1 <0>         0.2185
     39 H15        -8.5929    6.9940    1.3064 H         1 <0>         0.2258
     40 H16        -0.7577    4.0837   -1.0068 H         1 <0>         0.2749
@<TRIPOS>BOND
     1    1    2 1
     2    1   25 1
     3    1   26 1
     4    1   27 1
     5    2    7 ar
     6    2    3 ar
     7    3    4 ar
     8    3   28 1
     9    4    5 ar
    10    4   29 1
    11    5    6 ar
    12    5    9 1
    13    6    7 ar
    14    6   30 1
    15    7    8 1
    16    8   31 1
    17    8   32 1
    18    8   33 1
    19    9   24 1
    20    9   10 am
    21   10   11 2
    22   10   12 1
    23   12   13 2
    24   12   22 1
    25   13   14 1
    26   13   34 1
    27   14   19 ar
    28   14   15 ar
    29   15   16 ar
    30   15   35 1
    31   16   17 ar
    32   16   36 1
    33   17   18 ar
    34   17   21 1
    35   18   19 ar
    36   18   20 1
    37   19   37 1
    38   20   38 1
    39   21   39 1
    40   22   23 2
    41   22   24 am
    42   24   40 1
@<TRIPOS>MOLECULE
ZINC03127361
   37    39     0     0     0
SMALL
USER_CHARGES

@<TRIPOS>ATOM
      1 C1          2.7902   -0.0169   -0.0256 C.2       1 <0>        -0.3147
      2 C2          2.5469    1.2979   -0.0157 C.2       1 <0>         0.1328
      3 C3          1.1571    1.7905    0.0006 C.2       1 <0>        -0.2254
      4 C4         -0.0126    1.0758    0.0080 C.2       1 <0>        -0.1315
      5 C5         -1.2065    1.7614    0.0173 C.2       1 <0>        -0.1436
      6 C6         -1.1900    3.1195    0.0303 C.2       1 <0>        -0.2422
      7 S1          0.5598    3.4729    0.0154 S.3       1 <0>         0.4214
      8 N1         -2.4927    1.0273    0.0187 N.pl3     1 <0>         0.5592
      9 O1         -2.4986   -0.1907    0.0117 O.2       1 <0>        -0.3492
     10 O2         -3.5445    1.6414    0.0270 O.3       1 <0>        -0.3536
     11 N2          3.6087    2.2043   -0.0209 N.pl3     1 <0>        -0.2701
     12 N3          4.9291    1.7363   -0.0365 N.am      1 <0>        -0.2724
     13 C7          5.9542    2.6113   -0.0415 C.2       1 <0>         0.2997
     14 O3          5.7335    3.8039   -0.0325 O.2       1 <0>        -0.3284
     15 C8          7.3745    2.1080   -0.0582 C.3       1 <0>        -0.0154
     16 H1          7.5161    1.4352   -0.9041 H         1 <0>         0.1185
     17 C9          7.6756    1.3646    1.2502 C.3       1 <0>        -0.0429
     18 O4          9.0339    0.9135    1.2067 O.3       1 <0>        -0.2009
     19 C10         9.9652    1.8151    0.7918 C.ar      1 <0>         0.0107
     20 C11        11.3061    1.5801    1.0579 C.ar      1 <0>        -0.1192
     21 C12        12.2640    2.4832    0.6375 C.ar      1 <0>        -0.1269
     22 C13        11.8888    3.6228   -0.0494 C.ar      1 <0>        -0.1261
     23 C14        10.5545    3.8636   -0.3167 C.ar      1 <0>        -0.1153
     24 C15         9.5879    2.9620    0.1035 C.ar      1 <0>         0.0174
     25 O5          8.2775    3.2139   -0.1646 O.3       1 <0>        -0.1698
     26 H2          3.8081   -0.3777   -0.0376 H         1 <0>         0.1151
     27 H3          1.9688   -0.7181   -0.0216 H         1 <0>         0.1389
     28 H4          0.0021   -0.0041    0.0020 H         1 <0>         0.1833
     29 H5         -2.0217    3.8085    0.0416 H         1 <0>         0.2205
     30 H6          3.4322    3.1580   -0.0138 H         1 <0>         0.2768
     31 H7          5.1056    0.7825   -0.0437 H         1 <0>         0.2547
     32 H8          7.5394    2.0388    2.0958 H         1 <0>         0.1095
     33 H9          7.0067    0.5097    1.3496 H         1 <0>         0.1172
     34 H10        11.6018    0.6904    1.5939 H         1 <0>         0.1461
     35 H11        13.3075    2.2981    0.8455 H         1 <0>         0.1374
     36 H12        12.6398    4.3262   -0.3775 H         1 <0>         0.1382
     37 H13        10.2641    4.7545   -0.8536 H         1 <0>         0.1503
@<TRIPOS>BOND
     1    1    2 2
     2    1   26 1
     3    1   27 1
     4    2    3 1
     5    2   11 1
     6    3    7 1
     7    3    4 2
     8    4    5 1
     9    4   28 1
    10    5    6 2
    11    5    8 1
    12    6    7 1
    13    6   29 1
    14    8    9 2
    15    8   10 1
    16   11   12 1
    17   11   30 1
    18   12   13 am
    19   12   31 1
    20   13   14 2
    21   13   15 1
    22   15   16 1
    23   15   25 1
    24   15   17 1
    25   17   18 1
    26   17   32 1
    27   17   33 1
    28   18   19 1
    29   19   24 ar
    30   19   20 ar
    31   20   21 ar
    32   20   34 1
    33   21   22 ar
    34   21   35 1
    35   22   23 ar
    36   22   36 1
    37   23   24 ar
    38   23   37 1
    39   24   25 1
@<TRIPOS>MOLECULE
ZINC03135479
   42    43     0     0     0
SMALL
USER_CHARGES

@<TRIPOS>ATOM
      1 C1         -7.2297    4.1297    0.9976 C.3       1 <0>        -0.1712
      2 C2         -5.9279    3.3963    0.8014 C.ar      1 <0>        -0.1012
      3 C3         -5.9074    2.0135    0.8081 C.ar      1 <0>        -0.0969
      4 C4         -4.7164    1.3381    0.6286 C.ar      1 <0>        -0.1698
      5 C5         -3.5376    2.0496    0.4407 C.ar      1 <0>         0.0861
      6 C6         -3.5612    3.4390    0.4397 C.ar      1 <0>        -0.1503
      7 C7         -4.7567    4.1077    0.6146 C.ar      1 <0>        -0.0997
      8 N1         -2.3317    1.3702    0.2589 N.pl3     1 <0>        -0.2665
      9 N2         -1.1443    2.0891    0.0695 N.2       1 <0>         0.1637
     10 C8         -0.0042    1.4599    0.0071 C.2       1 <0>        -0.8181
     11 C9          0.0276   -0.0020    0.0480 C.2       1 <0>         0.3307
     12 O1         -0.4854   -0.5961    0.9784 O.2       1 <0>        -0.3491
     13 N3          0.6248   -0.6911   -0.9444 N.am      1 <0>        -0.3059
     14 N4          0.5682   -2.0559   -0.9584 N.3       1 <0>        -0.2129
     15 S1          1.4978    2.3702   -0.1339 S.o2      1 <0>         2.7556
     16 O2          2.4112    1.5401   -0.8380 O.2       1 <0>        -0.9077
     17 O3          1.1442    3.6697   -0.5872 O.2       1 <0>        -0.8845
     18 C10         2.1446    2.5634    1.4937 C.ar      1 <0>        -0.7473
     19 C11         1.7938    3.6656    2.2506 C.ar      1 <0>        -0.0175
     20 C12         2.2978    3.8149    3.5291 C.ar      1 <0>        -0.1521
     21 C13         3.1601    2.8668    4.0472 C.ar      1 <0>        -0.0134
     22 C14         3.5147    1.7670    3.2885 C.ar      1 <0>        -0.1495
     23 C15         3.0073    1.6155    2.0116 C.ar      1 <0>        -0.0167
     24 C16         3.7132    3.0320    5.4393 C.3       1 <0>        -0.1847
     25 H1         -7.3864    4.3138    2.0604 H         1 <0>         0.0857
     26 H2         -7.1949    5.0804    0.4654 H         1 <0>         0.0817
     27 H3         -8.0493    3.5255    0.6088 H         1 <0>         0.0803
     28 H4         -6.8239    1.4612    0.9543 H         1 <0>         0.1346
     29 H5         -4.7012    0.2582    0.6340 H         1 <0>         0.1335
     30 H6         -2.6463    3.9952    0.2984 H         1 <0>         0.1558
     31 H7         -4.7764    5.1875    0.6099 H         1 <0>         0.1359
     32 H8         -2.3159    0.4003    0.2637 H         1 <0>         0.2492
     33 H9          1.0948   -0.2180   -1.6488 H         1 <0>         0.2466
     34 H10        -0.3877   -2.3784   -0.9364 H         1 <0>         0.1569
     35 H11         1.0577   -2.4299   -1.7575 H         1 <0>         0.1649
     36 H12         1.1233    4.4084    1.8443 H         1 <0>         0.1524
     37 H13         2.0204    4.6740    4.1220 H         1 <0>         0.1385
     38 H14         4.1885    1.0263    3.6933 H         1 <0>         0.1397
     39 H15         3.2847    0.7565    1.4188 H         1 <0>         0.1529
     40 H16         4.6473    3.5921    5.3950 H         1 <0>         0.0941
     41 H17         2.9940    3.5730    6.0542 H         1 <0>         0.0877
     42 H18         3.8985    2.0504    5.8755 H         1 <0>         0.0885
@<TRIPOS>BOND
     1    1    2 1
     2    1   25 1
     3    1   26 1
     4    1   27 1
     5    2    7 ar
     6    2    3 ar
     7    3    4 ar
     8    3   28 1
     9    4    5 ar
    10    4   29 1
    11    5    6 ar
    12    5    8 1
    13    6    7 ar
    14    6   30 1
    15    7   31 1
    16    8    9 1
    17    8   32 1
    18    9   10 2
    19   10   11 1
    20   10   15 1
    21   11   12 2
    22   11   13 am
    23   13   14 1
    24   13   33 1
    25   14   34 1
    26   14   35 1
    27   15   16 2
    28   15   17 2
    29   15   18 1
    30   18   23 ar
    31   18   19 ar
    32   19   20 ar
    33   19   36 1
    34   20   21 ar
    35   20   37 1
    36   21   22 ar
    37   21   24 1
    38   22   23 ar
    39   22   38 1
    40   23   39 1
    41   24   40 1
    42   24   41 1
    43   24   42 1
@<TRIPOS>MOLECULE
ZINC03138355
   41    43     0     0     0
SMALL
USER_CHARGES

@<TRIPOS>ATOM
      1 C1         -1.8225   -2.7525   -4.9646 C.3       1 <0>        -0.1408
      2 C2         -1.7520   -2.2065   -3.5617 C.2       1 <0>        -0.0522
      3 C3         -2.6007   -1.3184   -2.9970 C.2       1 <0>        -0.2651
      4 C4         -2.0902   -1.1447   -1.6823 C.2       1 <0>         0.0174
      5 N1         -1.0316   -1.9081   -1.5984 N.2       1 <0>        -0.0959
      6 O1         -0.8349   -2.5066   -2.6305 O.3       1 <0>         0.0542
      7 N2         -2.6086   -0.3233   -0.6867 N.pl3     1 <0>        -0.7687
      8 S1         -1.8714   -0.2511    0.7944 S.o2      1 <0>         2.7532
      9 O2         -1.6634   -1.5939    1.2104 O.2       1 <0>        -0.8595
     10 O3         -2.6109    0.6811    1.5712 O.2       1 <0>        -0.8911
     11 C5         -0.2750    0.4528    0.5481 C.ar      1 <0>        -0.7461
     12 C6         -0.1060    1.8232    0.6252 C.ar      1 <0>         0.0080
     13 C7          1.1439    2.3782    0.4332 C.ar      1 <0>        -0.1869
     14 C8          2.2322    1.5582    0.1626 C.ar      1 <0>         0.0563
     15 C9          2.0588    0.1820    0.0857 C.ar      1 <0>        -0.1501
     16 C10         0.8060   -0.3663    0.2785 C.ar      1 <0>         0.0276
     17 N3          3.4985    2.1164   -0.0315 N.pl3     1 <0>        -0.2072
     18 C11         3.6295    3.3202   -0.7076 C.cat     1 <0>        -0.0314
     19 N4          4.7101    4.0552   -0.8903 N.pl3     1 <0>        -0.1124
     20 C12         4.6596    5.1869   -1.5667 C.2       1 <0>        -0.0382
     21 C13         3.4679    5.5835   -2.0744 C.2       1 <0>        -0.3330
     22 S2          2.4152    4.2432   -1.5376 S.3       1 <0>         0.5694
     23 C14         5.8993    6.0195   -1.7695 C.3       1 <0>        -0.1686
     24 C15         5.9881    3.6069   -0.3318 C.3       1 <0>        -0.1182
     25 H1         -1.2499   -2.1102   -5.6337 H         1 <0>         0.1019
     26 H2         -1.4067   -3.7598   -4.9838 H         1 <0>         0.1080
     27 H3         -2.8621   -2.7822   -5.2910 H         1 <0>         0.1110
     28 H4         -3.4662   -0.8499   -3.4418 H         1 <0>         0.1820
     29 H5         -3.4019    0.2073   -0.8600 H         1 <0>         0.2697
     30 H6         -0.9532    2.4604    0.8315 H         1 <0>         0.1699
     31 H7          1.2752    3.4485    0.4933 H         1 <0>         0.1399
     32 H8          2.9026   -0.4583   -0.1248 H         1 <0>         0.1532
     33 H9          0.6705   -1.4362    0.2189 H         1 <0>         0.1952
     34 H10         4.2859    1.6619    0.3068 H         1 <0>         0.2711
     35 H11         3.2226    6.4647   -2.6486 H         1 <0>         0.2411
     36 H12         6.4488    5.6483   -2.6346 H         1 <0>         0.1219
     37 H13         5.6157    7.0585   -1.9376 H         1 <0>         0.1296
     38 H14         6.5300    5.9540   -0.8829 H         1 <0>         0.1053
     39 H15         6.5483    3.0663   -1.0946 H         1 <0>         0.1273
     40 H16         6.5641    4.4718   -0.0026 H         1 <0>         0.1394
     41 H17         5.8028    2.9493    0.5175 H         1 <0>         0.1129
@<TRIPOS>BOND
     1    1    2 1
     2    1   25 1
     3    1   26 1
     4    1   27 1
     5    2    6 1
     6    2    3 2
     7    3    4 1
     8    3   28 1
     9    4    5 2
    10    4    7 1
    11    5    6 1
    12    7    8 1
    13    7   29 1
    14    8    9 2
    15    8   10 2
    16    8   11 1
    17   11   16 ar
    18   11   12 ar
    19   12   13 ar
    20   12   30 1
    21   13   14 ar
    22   13   31 1
    23   14   15 ar
    24   14   17 1
    25   15   16 ar
    26   15   32 1
    27   16   33 1
    28   17   18 1
    29   17   34 1
    30   18   22 1
    31   18   19 2
    32   19   20 1
    33   19   24 1
    34   20   21 2
    35   20   23 1
    36   21   22 1
    37   21   35 1
    38   23   36 1
    39   23   37 1
    40   23   38 1
    41   24   39 1
    42   24   40 1
    43   24   41 1
@<TRIPOS>MOLECULE
ZINC03152896
   38    39     0     0     0
SMALL
USER_CHARGES

@<TRIPOS>ATOM
      1 C1          4.4283    0.4308   -1.6487 C.3       1 <0>        -0.2170
      2 C2          3.1832    1.3101   -1.7809 C.3       1 <0>         0.0132
      3 O1          2.0979    0.7317   -1.0090 O.3       1 <0>        -0.2782
      4 C3          0.9225    1.3884   -1.0195 C.2       1 <0>         0.4049
      5 O2          0.8068    2.4168   -1.6563 O.2       1 <0>        -0.4010
      6 N1         -0.1257    0.9052   -0.3236 N.am      1 <0>        -0.3146
      7 C4         -1.3134    1.6414   -0.2462 C.ar      1 <0>         0.1342
      8 C5         -1.2717    3.0292   -0.2255 C.ar      1 <0>        -0.1539
      9 C6         -2.4459    3.7529   -0.1538 C.ar      1 <0>        -0.0040
     10 C7         -3.6615    3.0968   -0.0921 C.ar      1 <0>        -0.7776
     11 C8         -3.7061    1.7148   -0.1073 C.ar      1 <0>        -0.0084
     12 C9         -2.5358    0.9854   -0.1841 C.ar      1 <0>        -0.1878
     13 S1         -5.1568    4.0236    0.0066 S.o2      1 <0>         2.7621
     14 O3         -4.9078    5.2659   -0.6369 O.2       1 <0>        -0.9075
     15 O4         -6.2027    3.1515   -0.3993 O.2       1 <0>        -0.9176
     16 N2         -5.4177    4.3632    1.6063 N.pl3     1 <0>        -0.8263
     17 C10        -4.5257    5.1836    2.3006 C.ar      1 <0>         0.0333
     18 C11        -3.6394    4.6304    3.2161 C.ar      1 <0>        -0.1290
     19 C12        -2.7555    5.4439    3.8973 C.ar      1 <0>        -0.1273
     20 C13        -2.7591    6.8091    3.6767 C.ar      1 <0>        -0.1220
     21 C14        -3.6436    7.3637    2.7699 C.ar      1 <0>        -0.1233
     22 C15        -4.5267    6.5553    2.0814 C.ar      1 <0>        -0.1098
     23 H1          4.7204    0.3699   -0.6003 H         1 <0>         0.0869
     24 H2          4.2085   -0.5689   -2.0233 H         1 <0>         0.0877
     25 H3          5.2430    0.8651   -2.2282 H         1 <0>         0.0941
     26 H4          2.8911    1.3710   -2.8293 H         1 <0>         0.0941
     27 H5          3.4029    2.3099   -1.4063 H         1 <0>         0.0917
     28 H6         -0.0583    0.0453    0.1202 H         1 <0>         0.2443
     29 H7         -0.3223    3.5422   -0.2691 H         1 <0>         0.1679
     30 H8         -2.4143    4.8324   -0.1418 H         1 <0>         0.1560
     31 H9         -4.6572    1.2052   -0.0593 H         1 <0>         0.1535
     32 H10        -2.5713   -0.0939   -0.1963 H         1 <0>         0.1377
     33 H11        -6.1900    3.9923    2.0611 H         1 <0>         0.2523
     34 H12        -3.6391    3.5648    3.3921 H         1 <0>         0.1353
     35 H13        -2.0634    5.0140    4.6062 H         1 <0>         0.1328
     36 H14        -2.0694    7.4434    4.2136 H         1 <0>         0.1321
     37 H15        -3.6437    8.4302    2.5997 H         1 <0>         0.1371
     38 H16        -5.2174    6.9892    1.3735 H         1 <0>         0.1545
@<TRIPOS>BOND
     1    1    2 1
     2    1   23 1
     3    1   24 1
     4    1   25 1
     5    2    3 1
     6    2   26 1
     7    2   27 1
     8    3    4 1
     9    4    5 2
    10    4    6 am
    11    6    7 1
    12    6   28 1
    13    7   12 ar
    14    7    8 ar
    15    8    9 ar
    16    8   29 1
    17    9   10 ar
    18    9   30 1
    19   10   11 ar
    20   10   13 1
    21   11   12 ar
    22   11   31 1
    23   12   32 1
    24   13   14 2
    25   13   15 2
    26   13   16 1
    27   16   17 1
    28   16   33 1
    29   17   22 ar
    30   17   18 ar
    31   18   19 ar
    32   18   34 1
    33   19   20 ar
    34   19   35 1
    35   20   21 ar
    36   20   36 1
    37   21   22 ar
    38   21   37 1
    39   22   38 1
@<TRIPOS>MOLECULE
ZINC03165637
   40    42     0     0     0
SMALL
USER_CHARGES

@<TRIPOS>ATOM
      1 C1         -0.0705    5.1974    1.6577 C.3       1 <0>        -0.1983
      2 C2          0.0419    4.0324    0.6724 C.3       1 <0>        -0.1847
      3 C3         -1.2245    3.2165    0.7126 C.2       1 <0>         0.3011
      4 O1         -2.1279    3.5354    1.4562 O.2       1 <0>        -0.3192
      5 N1         -1.3509    2.1292   -0.0737 N.am      1 <0>        -0.3270
      6 C4         -2.4792    1.3187    0.0342 C.ar      1 <0>         0.1601
      7 C5         -2.3873   -0.0620   -0.1497 C.ar      1 <0>        -0.1943
      8 C6         -3.5223   -0.8313   -0.0312 C.ar      1 <0>         0.0186
      9 N2         -4.6959   -0.2732    0.2448 N.ar      1 <0>         0.0953
     10 C7         -4.8214    1.0376    0.4214 C.ar      1 <0>         0.0182
     11 C8         -3.7291    1.8690    0.3229 C.ar      1 <0>        -0.1500
     12 C9         -5.8090   -1.0724    0.3498 C.2       1 <0>        -0.1358
     13 N3         -6.0240   -2.0397   -0.5175 N.2       1 <0>        -0.0937
     14 C10        -7.1265   -2.8084   -0.4390 C.ar      1 <0>        -0.1082
     15 C11        -7.2423   -3.9631   -1.2280 C.ar      1 <0>        -0.0609
     16 C12        -8.3552   -4.7470   -1.1285 C.ar      1 <0>        -0.1686
     17 C13        -9.3812   -4.4174   -0.2529 C.ar      1 <0>        -0.0850
     18 C14        -9.2962   -3.2835    0.5286 C.ar      1 <0>        -0.1321
     19 C15        -8.1756   -2.4694    0.4387 C.ar      1 <0>         0.0598
     20 N4         -8.0707   -1.3161    1.2027 N.2       1 <0>        -0.2064
     21 C16        -6.7883   -0.8582    1.4332 C.2       1 <0>         0.1368
     22 C17        -6.4362   -0.2255    2.6298 C.2       1 <0>        -0.2237
     23 C18        -7.4480    0.1158    3.5840 C.1       1 <0>        -0.0221
     24 N5         -8.2506    0.3865    4.3409 N.1       1 <0>        -0.0942
     25 C19        -5.0639    0.0811    2.9008 C.1       1 <0>        -0.0467
     26 N6         -3.9752    0.3243    3.1157 N.1       1 <0>        -0.1303
     27 H1          0.8455    5.7876    1.6286 H         1 <0>         0.0824
     28 H2         -0.9169    5.8264    1.3817 H         1 <0>         0.0927
     29 H3         -0.2202    4.8083    2.6649 H         1 <0>         0.0991
     30 H4          0.8882    3.4034    0.9484 H         1 <0>         0.1088
     31 H5          0.1916    4.4215   -0.3348 H         1 <0>         0.1039
     32 H6         -0.6564    1.9108   -0.7147 H         1 <0>         0.2462
     33 H7         -1.4369   -0.5211   -0.3787 H         1 <0>         0.1710
     34 H8         -3.4590   -1.9007   -0.1687 H         1 <0>         0.2068
     35 H9         -5.7920    1.4555    0.6445 H         1 <0>         0.2179
     36 H10        -3.8376    2.9338    0.4676 H         1 <0>         0.2075
     37 H11        -6.4516   -4.2314   -1.9130 H         1 <0>         0.1351
     38 H12        -8.4387   -5.6347   -1.7380 H         1 <0>         0.1313
     39 H13       -10.2518   -5.0527   -0.1834 H         1 <0>         0.1333
     40 H14       -10.0974   -3.0311    1.2074 H         1 <0>         0.1553
@<TRIPOS>BOND
     1    1    2 1
     2    1   27 1
     3    1   28 1
     4    1   29 1
     5    2    3 1
     6    2   30 1
     7    2   31 1
     8    3    4 2
     9    3    5 am
    10    5    6 1
    11    5   32 1
    12    6   11 ar
    13    6    7 ar
    14    7    8 ar
    15    7   33 1
    16    8    9 ar
    17    8   34 1
    18    9   10 ar
    19    9   12 1
    20   10   11 ar
    21   10   35 1
    22   11   36 1
    23   12   21 1
    24   12   13 2
    25   13   14 1
    26   14   19 ar
    27   14   15 ar
    28   15   16 ar
    29   15   37 1
    30   16   17 ar
    31   16   38 1
    32   17   18 ar
    33   17   39 1
    34   18   19 ar
    35   18   40 1
    36   19   20 1
    37   20   21 1
    38   21   22 2
    39   22   23 1
    40   22   25 1
    41   23   24 3
    42   25   26 3
@<TRIPOS>MOLECULE
ZINC03168325
   42    44     0     0     0
SMALL
USER_CHARGES

@<TRIPOS>ATOM
      1 C1         -3.3899   -2.5565    0.0101 C.ar      1 <0>        -0.1155
      2 C2         -3.5654   -1.1846    0.0250 C.ar      1 <0>        -0.1358
      3 C3         -2.4690   -0.3460    0.0222 C.ar      1 <0>        -0.0908
      4 C4         -1.1841   -0.8838    0.0043 C.ar      1 <0>        -0.0028
      5 C5         -1.0131   -2.2661   -0.0160 C.ar      1 <0>        -0.0956
      6 C6         -2.1163   -3.0956   -0.0078 C.ar      1 <0>        -0.1367
      7 C7         -0.0011    0.0133    0.0007 C.2       1 <0>        -0.0559
      8 N1         -0.0127    1.3537    0.0128 N.2       1 <0>        -0.1185
      9 N2          1.2156    1.7473    0.0043 N.2       1 <0>        -0.0224
     10 N3          1.9850    0.7154   -0.0124 N.pl3     1 <0>        -0.0433
     11 N4          1.2649   -0.3534   -0.0149 N.2       1 <0>        -0.1305
     12 C8          3.4495    0.7505   -0.0272 C.3       1 <0>        -0.0050
     13 C9          3.9370    0.7757   -1.4530 C.2       1 <0>         0.2957
     14 O1          3.1392    0.7653   -2.3673 O.2       1 <0>        -0.2907
     15 N5          5.2599    0.8097   -1.7128 N.am      1 <0>        -0.3261
     16 N6          5.7131    0.8331   -3.0382 N.2       1 <0>        -0.0598
     17 C10         6.9757    0.9687   -3.2881 C.2       1 <0>         0.0668
     18 C11         7.9849    0.9976   -2.1420 C.3       1 <0>        -0.1736
     19 C12         8.7906   -0.2873   -2.2290 C.3       1 <0>        -0.1577
     20 C13        10.0223   -0.1746   -3.1291 C.3       1 <0>        -0.1541
     21 C14         9.7478    0.5719   -4.4348 C.3       1 <0>        -0.1887
     22 C15         8.4382    0.1812   -5.0841 C.3       1 <0>         0.0118
     23 N7          7.3986    1.0888   -4.5441 N.pl3     1 <0>        -0.3745
     24 H1         -4.2505   -3.2090    0.0127 H         1 <0>         0.1293
     25 H2         -4.5620   -0.7687    0.0385 H         1 <0>         0.1335
     26 H3         -2.6071    0.7250    0.0343 H         1 <0>         0.1512
     27 H4         -0.0191   -2.6880   -0.0341 H         1 <0>         0.1457
     28 H5         -1.9848   -4.1675   -0.0194 H         1 <0>         0.1321
     29 H6          3.7968    1.6441    0.4914 H         1 <0>         0.1368
     30 H7          3.8392   -0.1353    0.4744 H         1 <0>         0.1363
     31 H8          5.8977    0.8180   -0.9819 H         1 <0>         0.2064
     32 H9          8.6437    1.8593   -2.2494 H         1 <0>         0.1097
     33 H10         7.4610    1.0466   -1.1874 H         1 <0>         0.0804
     34 H11         8.1479   -1.0788   -2.6147 H         1 <0>         0.0888
     35 H12         9.1158   -0.5612   -1.2254 H         1 <0>         0.0810
     36 H13        10.3751   -1.1781   -3.3670 H         1 <0>         0.0829
     37 H14        10.8073    0.3498   -2.5843 H         1 <0>         0.0820
     38 H15        10.5593    0.3659   -5.1327 H         1 <0>         0.0850
     39 H16         9.7304    1.6421   -4.2287 H         1 <0>         0.0931
     40 H17         8.1944   -0.8521   -4.8371 H         1 <0>         0.0914
     41 H18         8.5084    0.2981   -6.1655 H         1 <0>         0.0964
     42 H19         7.0218    1.7783   -5.1129 H         1 <0>         0.2413
@<TRIPOS>BOND
     1    1    6 ar
     2    1    2 ar
     3    1   24 1
     4    2    3 ar
     5    2   25 1
     6    3    4 ar
     7    3   26 1
     8    4    5 ar
     9    4    7 1
    10    5    6 ar
    11    5   27 1
    12    6   28 1
    13    7   11 2
    14    7    8 1
    15    8    9 2
    16    9   10 1
    17   10   11 1
    18   10   12 1
    19   12   13 1
    20   12   29 1
    21   12   30 1
    22   13   14 2
    23   13   15 am
    24   15   16 1
    25   15   31 1
    26   16   17 2
    27   17   23 1
    28   17   18 1
    29   18   19 1
    30   18   32 1
    31   18   33 1
    32   19   20 1
    33   19   34 1
    34   19   35 1
    35   20   21 1
    36   20   36 1
    37   20   37 1
    38   21   22 1
    39   21   38 1
    40   21   39 1
    41   22   23 1
    42   22   40 1
    43   22   41 1
    44   23   42 1
@<TRIPOS>MOLECULE
ZINC03191456
   43    47     0     0     0
SMALL
USER_CHARGES

@<TRIPOS>ATOM
      1 C1         -1.1324    5.6095   -1.7775 C.3       1 <0>        -0.0624
      2 O1         -1.6913    4.7370   -2.7616 O.3       1 <0>        -0.1996
      3 C2         -1.5474    3.4006   -2.5550 C.ar      1 <0>         0.1132
      4 C3         -0.8867    2.9400   -1.4260 C.ar      1 <0>        -0.2096
      5 C4         -0.7357    1.5821   -1.2176 C.ar      1 <0>        -0.0333
      6 C5         -1.2510    0.6777   -2.1273 C.ar      1 <0>        -0.1223
      7 C6         -1.9173    1.1293   -3.2562 C.ar      1 <0>         0.0427
      8 C7         -2.0667    2.4954   -3.4722 C.ar      1 <0>        -0.0270
      9 O2         -2.7512    2.6810   -4.6396 O.3       1 <0>        -0.1964
     10 C8         -3.3734    1.4143   -4.9254 C.3       1 <0>         0.1054
     11 O3         -2.5074    0.4570   -4.2874 O.3       1 <0>        -0.2040
     12 C9         -0.0127    1.0858    0.0080 C.3       1 <0>         0.0847
     13 H1          0.0021   -0.0041    0.0020 H         1 <0>         0.1330
     14 C10         1.4003    1.6037   -0.0027 C.2       1 <0>        -0.2591
     15 C11         1.7657    2.6409    0.8030 C.2       1 <0>         0.1663
     16 C12         3.1607    3.1058    0.7487 C.ar      1 <0>        -0.1385
     17 C13         3.6003    4.1624    1.5488 C.ar      1 <0>        -0.0616
     18 C14         4.9127    4.5728    1.4730 C.ar      1 <0>        -0.1577
     19 C15         5.7948    3.9423    0.6076 C.ar      1 <0>        -0.0719
     20 C16         5.3735    2.8976   -0.1879 C.ar      1 <0>        -0.1451
     21 C17         4.0544    2.4674   -0.1260 C.ar      1 <0>         0.1367
     22 O4          3.6240    1.4451   -0.8964 O.3       1 <0>        -0.1682
     23 C18         2.3536    1.0145   -0.8515 C.2       1 <0>         0.3729
     24 O5          2.0170    0.0868   -1.5664 O.2       1 <0>        -0.2849
     25 O6          0.8854    3.2343    1.6310 O.3       1 <0>        -0.1435
     26 C19        -0.2515    2.6002    1.9695 C.2       1 <0>         0.2548
     27 C20        -0.7329    1.5674    1.2367 C.2       1 <0>        -0.2501
     28 C21        -1.9477    0.9244    1.6385 C.1       1 <0>        -0.0657
     29 N1         -2.9113    0.4144    1.9573 N.1       1 <0>        -0.0614
     30 N2         -0.9409    3.0098    3.0835 N.pl3     1 <0>        -0.3841
     31 H2         -1.5955    5.4110   -0.8109 H         1 <0>         0.0652
     32 H3         -0.0582    5.4379   -1.7078 H         1 <0>         0.0662
     33 H4         -1.3171    6.6451   -2.0631 H         1 <0>         0.1090
     34 H5         -0.4866    3.6432   -0.7107 H         1 <0>         0.1393
     35 H6         -1.1346   -0.3826   -1.9582 H         1 <0>         0.1537
     36 H7         -4.3737    1.3729   -4.4944 H         1 <0>         0.0876
     37 H8         -3.4109    1.2399   -6.0007 H         1 <0>         0.1294
     38 H9          2.9153    4.6547    2.2233 H         1 <0>         0.1475
     39 H10         5.2569    5.3897    2.0900 H         1 <0>         0.1420
     40 H11         6.8216    4.2731    0.5560 H         1 <0>         0.1447
     41 H12         6.0687    2.4143   -0.8584 H         1 <0>         0.1598
     42 H13        -0.6069    3.7485    3.6161 H         1 <0>         0.2295
     43 H14        -1.7620    2.5606    3.3381 H         1 <0>         0.2627
@<TRIPOS>BOND
     1    1    2 1
     2    1   31 1
     3    1   32 1
     4    1   33 1
     5    2    3 1
     6    3    8 ar
     7    3    4 ar
     8    4    5 ar
     9    4   34 1
    10    5    6 ar
    11    5   12 1
    12    6    7 ar
    13    6   35 1
    14    7   11 1
    15    7    8 ar
    16    8    9 1
    17    9   10 1
    18   10   11 1
    19   10   36 1
    20   10   37 1
    21   12   13 1
    22   12   27 1
    23   12   14 1
    24   14   23 1
    25   14   15 2
    26   15   16 1
    27   15   25 1
    28   16   21 ar
    29   16   17 ar
    30   17   18 ar
    31   17   38 1
    32   18   19 ar
    33   18   39 1
    34   19   20 ar
    35   19   40 1
    36   20   21 ar
    37   20   41 1
    38   21   22 1
    39   22   23 1
    40   23   24 2
    41   25   26 1
    42   26   27 2
    43   26   30 1
    44   27   28 1
    45   28   29 3
    46   30   42 1
    47   30   43 1
@<TRIPOS>MOLECULE
ZINC03191611
   45    47     0     0     0
SMALL
USER_CHARGES

@<TRIPOS>ATOM
      1 C1          1.2478    2.0219   -0.0268 C.3       1 <0>        -0.0672
      2 O1         -0.0165    1.3560   -0.0339 O.3       1 <0>        -0.1949
      3 C2          0.0019   -0.0038   -0.0416 C.ar      1 <0>         0.1051
      4 C3          1.2097   -0.6790   -0.0423 C.ar      1 <0>        -0.2062
      5 C4          1.2282   -2.0733   -0.0497 C.ar      1 <0>         0.0231
      6 C5          0.0290   -2.7848   -0.0564 C.ar      1 <0>        -0.2419
      7 C6         -1.1771   -2.1065   -0.0558 C.ar      1 <0>         0.1063
      8 C7         -1.1936   -0.7154   -0.0430 C.ar      1 <0>         0.0162
      9 O2         -2.3800   -0.0502   -0.0371 O.3       1 <0>        -0.2071
     10 C8         -2.9484    0.2738   -1.3075 C.3       1 <0>        -0.0573
     11 O3         -2.3469   -2.8001   -0.0623 O.3       1 <0>        -0.1924
     12 C9         -2.2555   -4.2262   -0.0697 C.3       1 <0>        -0.0643
     13 C10         2.5208   -2.7981   -0.0499 C.ar      1 <0>         0.0528
     14 C11         2.5106   -4.2018   -0.0575 C.ar      1 <0>        -0.1523
     15 C12         3.7139   -4.8916   -0.0578 C.ar      1 <0>        -0.0714
     16 C13         4.9433   -4.0980   -0.0501 C.ar      1 <0>        -0.0521
     17 C14         6.2045   -4.7036   -0.0494 C.ar      1 <0>        -0.1072
     18 C15         7.3248   -3.9265   -0.0416 C.ar      1 <0>        -0.1256
     19 C16         7.2294   -2.5366   -0.0343 C.ar      1 <0>        -0.1140
     20 C17         6.0185   -1.9154   -0.0353 C.ar      1 <0>        -0.1055
     21 C18         4.8399   -2.6843   -0.0428 C.ar      1 <0>         0.0251
     22 N1          3.6390   -2.1032   -0.0484 N.ar      1 <0>        -0.1405
     23 C19         3.7529   -6.3702   -0.0661 C.2       1 <0>         0.3533
     24 O4          4.8163   -6.9495   -0.1707 O.2       1 <0>        -0.3474
     25 N2          2.6093   -7.0751    0.0423 N.am      1 <0>        -0.3243
     26 N3          2.6454   -8.4406    0.0346 N.3       1 <0>        -0.2100
     27 H1          1.0904    3.1005   -0.0211 H         1 <0>         0.1101
     28 H2          1.8064    1.7316    0.8630 H         1 <0>         0.0739
     29 H3          1.8111    1.7417   -0.9169 H         1 <0>         0.0710
     30 H4          2.1376   -0.1264   -0.0374 H         1 <0>         0.1643
     31 H5          0.0415   -3.8647   -0.0626 H         1 <0>         0.1330
     32 H6         -2.2588    0.9098   -1.8625 H         1 <0>         0.0624
     33 H7         -3.1293   -0.6427   -1.8690 H         1 <0>         0.0607
     34 H8         -3.8906    0.8015   -1.1600 H         1 <0>         0.1020
     35 H9         -1.7174   -4.5511   -0.9602 H         1 <0>         0.0646
     36 H10        -1.7217   -4.5607    0.8198 H         1 <0>         0.0648
     37 H11        -3.2579   -4.6544   -0.0745 H         1 <0>         0.1122
     38 H12         1.5741   -4.7398   -0.0634 H         1 <0>         0.1329
     39 H13         6.2902   -5.7802   -0.0546 H         1 <0>         0.1874
     40 H14         8.2983   -4.3943   -0.0414 H         1 <0>         0.1359
     41 H15         8.1312   -1.9424   -0.0282 H         1 <0>         0.1335
     42 H16         5.9624   -0.8369   -0.0299 H         1 <0>         0.1468
     43 H17         1.7607   -6.6128    0.1258 H         1 <0>         0.2227
     44 H18         3.2536   -8.7904    0.7598 H         1 <0>         0.1641
     45 H19         1.7176   -8.8273    0.1232 H         1 <0>         0.1576
@<TRIPOS>BOND
     1    1    2 1
     2    1   27 1
     3    1   28 1
     4    1   29 1
     5    2    3 1
     6    3    8 ar
     7    3    4 ar
     8    4    5 ar
     9    4   30 1
    10    5    6 ar
    11    5   13 1
    12    6    7 ar
    13    6   31 1
    14    7    8 ar
    15    7   11 1
    16    8    9 1
    17    9   10 1
    18   10   32 1
    19   10   33 1
    20   10   34 1
    21   11   12 1
    22   12   35 1
    23   12   36 1
    24   12   37 1
    25   13   22 ar
    26   13   14 ar
    27   14   15 ar
    28   14   38 1
    29   15   16 ar
    30   15   23 1
    31   16   21 ar
    32   16   17 ar
    33   17   18 ar
    34   17   39 1
    35   18   19 ar
    36   18   40 1
    37   19   20 ar
    38   19   41 1
    39   20   21 ar
    40   20   42 1
    41   21   22 ar
    42   23   24 2
    43   23   25 am
    44   25   26 1
    45   25   43 1
    46   26   44 1
    47   26   45 1
@<TRIPOS>MOLECULE
ZINC03192256
   44    46     0     0     0
SMALL
USER_CHARGES

@<TRIPOS>ATOM
      1 C1         -1.0734   -2.1241    0.0477 C.3       1 <0>        -0.0653
      2 O1         -1.1654   -0.6980    0.0466 O.3       1 <0>        -0.1927
      3 C2          0.0025   -0.0048    0.0318 C.ar      1 <0>         0.0871
      4 C3          1.2122   -0.6867    0.0182 C.ar      1 <0>        -0.1961
      5 C4          2.3999    0.0107    0.0032 C.ar      1 <0>        -0.1030
      6 C5          2.3891    1.4103    0.0012 C.ar      1 <0>        -0.0769
      7 C6          1.1693    2.0967    0.0144 C.ar      1 <0>        -0.1639
      8 C7         -0.0166    1.3895    0.0299 C.ar      1 <0>         0.0671
      9 O2         -1.2037    2.0530    0.0377 O.3       1 <0>        -0.1959
     10 C8         -1.1488    3.4809    0.0352 C.3       1 <0>        -0.0653
     11 C9          3.6550    2.1571   -0.0149 C.2       1 <0>        -0.0182
     12 C10         4.8305    1.4930   -0.0277 C.2       1 <0>        -0.2429
     13 C11         6.0896    2.2358   -0.0436 C.2       1 <0>         0.3464
     14 O3          6.0781    3.4530   -0.0453 O.2       1 <0>        -0.3765
     15 N1          7.2630    1.5729   -0.0564 N.am      1 <0>        -0.3108
     16 C12         8.4581    2.2763   -0.1686 C.ar      1 <0>         0.1268
     17 C13         8.5958    3.5280    0.4285 C.ar      1 <0>        -0.1196
     18 C14         9.7816    4.2258    0.3242 C.ar      1 <0>        -0.0989
     19 C15        10.8513    3.7009   -0.3845 C.ar      1 <0>        -0.0945
     20 C16        10.7337    2.4601   -0.9910 C.ar      1 <0>        -0.0842
     21 C17         9.5272    1.7373   -0.8845 C.ar      1 <0>        -0.1505
     22 C18         9.4331    0.4196   -1.5404 C.2       1 <0>         0.3653
     23 O4          8.4070   -0.2286   -1.4680 O.2       1 <0>        -0.3803
     24 N2         10.4923   -0.0603   -2.2207 N.am      1 <0>        -0.2718
     25 H1         10.4200   -0.9544   -2.6628 H         1 <0>         0.2669
     26 N3         11.6873    0.6526   -2.3271 N.am      1 <0>        -0.2777
     27 H2         12.4456    0.2541   -2.8430 H         1 <0>         0.2674
     28 C19        11.8497    1.8619   -1.7554 C.2       1 <0>         0.3544
     29 O5         12.9041    2.4561   -1.8672 O.2       1 <0>        -0.3487
     30 H3         -0.5269   -2.4522    0.9319 H         1 <0>         0.0672
     31 H4         -2.0755   -2.5527    0.0602 H         1 <0>         0.1115
     32 H5         -0.5478   -2.4549   -0.8480 H         1 <0>         0.0677
     33 H6          1.2217   -1.7666    0.0198 H         1 <0>         0.1427
     34 H7          3.3392   -0.5222   -0.0074 H         1 <0>         0.1374
     35 H8          1.1557    3.1766    0.0126 H         1 <0>         0.1463
     36 H9         -2.1617    3.8835    0.0420 H         1 <0>         0.1113
     37 H10        -0.6148    3.8256    0.9207 H         1 <0>         0.0669
     38 H11        -0.6279    3.8229   -0.8592 H         1 <0>         0.0674
     39 H12         3.6448    3.2371   -0.0164 H         1 <0>         0.1547
     40 H13         4.8407    0.4131   -0.0261 H         1 <0>         0.1377
     41 H14         7.2742    0.6055    0.0126 H         1 <0>         0.2629
     42 H15         7.7702    3.9528    0.9801 H         1 <0>         0.1762
     43 H16         9.8759    5.1928    0.7958 H         1 <0>         0.1435
     44 H17        11.7737    4.2571   -0.4636 H         1 <0>         0.1589
@<TRIPOS>BOND
     1    1    2 1
     2    1   30 1
     3    1   31 1
     4    1   32 1
     5    2    3 1
     6    3    8 ar
     7    3    4 ar
     8    4    5 ar
     9    4   33 1
    10    5    6 ar
    11    5   34 1
    12    6    7 ar
    13    6   11 1
    14    7    8 ar
    15    7   35 1
    16    8    9 1
    17    9   10 1
    18   10   36 1
    19   10   37 1
    20   10   38 1
    21   11   12 2
    22   11   39 1
    23   12   13 1
    24   12   40 1
    25   13   14 2
    26   13   15 am
    27   15   16 1
    28   15   41 1
    29   16   21 ar
    30   16   17 ar
    31   17   18 ar
    32   17   42 1
    33   18   19 ar
    34   18   43 1
    35   19   20 ar
    36   19   44 1
    37   20   28 1
    38   20   21 ar
    39   21   22 1
    40   22   23 2
    41   22   24 am
    42   24   25 1
    43   24   26 1
    44   26   27 1
    45   26   28 am
    46   28   29 2
@<TRIPOS>MOLECULE
ZINC03196310
   40    41     0     0     0
SMALL
USER_CHARGES

@<TRIPOS>ATOM
      1 C1         -3.1771    8.6204    3.5069 C.3       1 <0>        -0.2402
      2 C2         -2.1576    8.1943    2.4822 C.2       1 <0>         0.3251
      3 O1         -1.1580    7.6025    2.8309 O.2       1 <0>        -0.3300
      4 N1         -2.3566    8.4708    1.1782 N.am      1 <0>        -0.8299
      5 S1         -1.2363    8.0025    0.0521 S.o2      1 <0>         2.7488
      6 O2          0.0303    8.4232    0.5400 O.2       1 <0>        -0.8832
      7 O3         -1.7384    8.4088   -1.2136 O.2       1 <0>        -0.9129
      8 C3         -1.2124    6.2407    0.0424 C.ar      1 <0>        -0.7758
      9 C4         -2.0553    5.5453   -0.8064 C.ar      1 <0>        -0.0222
     10 C5         -2.0416    4.1660   -0.8196 C.ar      1 <0>        -0.1443
     11 C6         -1.1742    3.4715    0.0265 C.ar      1 <0>         0.0592
     12 C7         -0.3299    4.1799    0.8844 C.ar      1 <0>        -0.1953
     13 C8         -0.3505    5.5591    0.8833 C.ar      1 <0>         0.0090
     14 N2         -1.1556    2.1031    0.0190 N.2       1 <0>        -0.1838
     15 C9         -0.0179    1.4667    0.0101 C.2       1 <0>         0.0266
     16 C10         0.0021   -0.0041    0.0020 C.ar      1 <0>        -0.1104
     17 C11        -1.1986   -0.7219    0.0154 C.ar      1 <0>        -0.0432
     18 C12        -1.1772   -2.0995    0.0019 C.ar      1 <0>        -0.2267
     19 C13         0.0336   -2.7784   -0.0133 C.ar      1 <0>         0.0955
     20 C14         1.2343   -2.0702   -0.0209 C.ar      1 <0>         0.0323
     21 C15         1.2219   -0.6890   -0.0133 C.ar      1 <0>        -0.0902
     22 O4          2.4182   -2.7393   -0.0362 O.3       1 <0>        -0.2730
     23 O5          0.0485   -4.1368   -0.0203 O.3       1 <0>        -0.1957
     24 C16        -1.2176   -4.7995   -0.0119 C.3       1 <0>        -0.0668
     25 H1         -3.9130    7.8273    3.6389 H         1 <0>         0.1106
     26 H2         -2.6784    8.8150    4.4564 H         1 <0>         0.1215
     27 H3         -3.6771    9.5272    3.1667 H         1 <0>         0.0902
     28 H4         -3.1561    8.9440    0.8993 H         1 <0>         0.2530
     29 H5         -2.7253    6.0836   -1.4604 H         1 <0>         0.1482
     30 H6         -2.6998    3.6245   -1.4829 H         1 <0>         0.1487
     31 H7          0.3405    3.6491    1.5442 H         1 <0>         0.1404
     32 H8          0.3048    6.1082    1.5433 H         1 <0>         0.1701
     33 H9          0.9100    2.0193    0.0042 H         1 <0>         0.1163
     34 H10        -2.1419   -0.1964    0.0321 H         1 <0>         0.1585
     35 H11        -2.1048   -2.6526    0.0081 H         1 <0>         0.1434
     36 H12         2.1515   -0.1392   -0.0196 H         1 <0>         0.1475
     37 H13         2.7694   -2.9376    0.8427 H         1 <0>         0.2252
     38 H14        -1.7694   -4.5172    0.8848 H         1 <0>         0.0684
     39 H15        -1.7860   -4.5082   -0.8951 H         1 <0>         0.0723
     40 H16        -1.0630   -5.8784   -0.0188 H         1 <0>         0.1129
@<TRIPOS>BOND
     1    1    2 1
     2    1   25 1
     3    1   26 1
     4    1   27 1
     5    2    3 2
     6    2    4 am
     7    4    5 1
     8    4   28 1
     9    5    6 2
    10    5    7 2
    11    5    8 1
    12    8   13 ar
    13    8    9 ar
    14    9   10 ar
    15    9   29 1
    16   10   11 ar
    17   10   30 1
    18   11   12 ar
    19   11   14 1
    20   12   13 ar
    21   12   31 1
    22   13   32 1
    23   14   15 2
    24   15   16 1
    25   15   33 1
    26   16   21 ar
    27   16   17 ar
    28   17   18 ar
    29   17   34 1
    30   18   19 ar
    31   18   35 1
    32   19   20 ar
    33   19   23 1
    34   20   21 ar
    35   20   22 1
    36   21   36 1
    37   22   37 1
    38   23   24 1
    39   24   38 1
    40   24   39 1
    41   24   40 1
@<TRIPOS>MOLECULE
ZINC03203516
   39    41     0     0     0
SMALL
USER_CHARGES

@<TRIPOS>ATOM
      1 C1          4.5848   10.6817    4.7743 C.3       1 <0>        -0.1596
      2 C2          4.7437    9.1833    4.7553 C.2       1 <0>         0.0400
      3 C3          3.9125    8.3913    3.9946 C.2       1 <0>        -0.3837
      4 S1          4.5741    6.7731    4.3665 S.3       1 <0>         0.2959
      5 C4          5.8279    7.2872    5.4525 C.2       1 <0>        -0.1397
      6 N1          5.6728    8.5950    5.4642 N.2       1 <0>        -0.2050
      7 C5          6.8378    6.4493    6.1934 C.3       1 <0>        -0.1312
      8 C6          2.7989    8.7706    3.1185 C.2       1 <0>         0.4053
      9 O1          2.4953    9.9422    2.9930 O.2       1 <0>        -0.3381
     10 N2          2.1120    7.8214    2.4524 N.am      1 <0>        -0.2671
     11 N3          1.0484    8.1836    1.6156 N.pl3     1 <0>        -0.7537
     12 S2          1.0402    7.7019    0.0312 S.o2      1 <0>         2.7578
     13 O2          2.2747    8.1278   -0.5291 O.2       1 <0>        -0.8886
     14 O3         -0.2156    8.0938   -0.5059 O.2       1 <0>        -0.8997
     15 C7          1.0642    5.9401    0.0222 C.ar      1 <0>        -0.7676
     16 C8          2.2864    5.2703    0.0079 C.ar      1 <0>        -0.0611
     17 C9          2.3401    3.9105   -0.0003 C.ar      1 <0>        -0.1283
     18 C10         1.1472    3.1674    0.0076 C.ar      1 <0>         0.0047
     19 C11         1.1626    1.7621    0.0004 C.ar      1 <0>        -0.1299
     20 C12        -0.0126    1.0758    0.0080 C.ar      1 <0>        -0.1018
     21 C13        -1.2348    1.7457    0.0174 C.ar      1 <0>        -0.1312
     22 C14        -1.2884    3.1055    0.0297 C.ar      1 <0>        -0.0984
     23 C15        -0.0955    3.8485    0.0227 C.ar      1 <0>        -0.0662
     24 C16        -0.1109    5.2538    0.0298 C.ar      1 <0>         0.0121
     25 H1          3.8967   10.9641    5.5711 H         1 <0>         0.0995
     26 H2          5.5544   11.1478    4.9495 H         1 <0>         0.0950
     27 H3          4.1883   11.0172    3.8160 H         1 <0>         0.1235
     28 H4          6.6828    5.3973    5.9540 H         1 <0>         0.0938
     29 H5          7.8438    6.7452    5.8959 H         1 <0>         0.1127
     30 H6          6.7174    6.5993    7.2663 H         1 <0>         0.1120
     31 H7          2.3541    6.8874    2.5525 H         1 <0>         0.2478
     32 H8          0.3168    8.7166    1.9643 H         1 <0>         0.2623
     33 H9          3.2045    5.8389    0.0029 H         1 <0>         0.1505
     34 H10         3.2944    3.4050   -0.0116 H         1 <0>         0.1399
     35 H11         2.1021    1.2296   -0.0114 H         1 <0>         0.1378
     36 H12         0.0021   -0.0041    0.0020 H         1 <0>         0.1334
     37 H13        -2.1530    1.1771    0.0187 H         1 <0>         0.1345
     38 H14        -2.2427    3.6110    0.0411 H         1 <0>         0.1386
     39 H15        -1.0505    5.7862    0.0417 H         1 <0>         0.1536
@<TRIPOS>BOND
     1    1    2 1
     2    1   25 1
     3    1   26 1
     4    1   27 1
     5    2    6 1
     6    2    3 2
     7    3    4 1
     8    3    8 1
     9    4    5 1
    10    5    6 2
    11    5    7 1
    12    7   28 1
    13    7   29 1
    14    7   30 1
    15    8    9 2
    16    8   10 am
    17   10   11 1
    18   10   31 1
    19   11   12 1
    20   11   32 1
    21   12   13 2
    22   12   14 2
    23   12   15 1
    24   15   24 ar
    25   15   16 ar
    26   16   17 ar
    27   16   33 1
    28   17   18 ar
    29   17   34 1
    30   18   23 ar
    31   18   19 ar
    32   19   20 ar
    33   19   35 1
    34   20   21 ar
    35   20   36 1
    36   21   22 ar
    37   21   37 1
    38   22   23 ar
    39   22   38 1
    40   23   24 ar
    41   24   39 1
@<TRIPOS>MOLECULE
ZINC03207937
   45    47     0     0     0
SMALL
USER_CHARGES

@<TRIPOS>ATOM
      1 C1          9.2822    2.4301   -4.6665 C.ar      1 <0>        -0.1202
      2 C2          9.1586    2.5697   -6.0366 C.ar      1 <0>        -0.1304
      3 C3          8.2191    1.8284   -6.7289 C.ar      1 <0>        -0.1368
      4 C4          7.3980    0.9426   -6.0502 C.ar      1 <0>         0.0346
      5 C5          7.5219    0.8014   -4.6697 C.ar      1 <0>         0.0370
      6 C6          8.4632    1.5530   -3.9811 C.ar      1 <0>        -0.1146
      7 N1          6.6948   -0.0924   -3.9783 N.am      1 <0>        -0.3188
      8 C7          6.2730    0.2051   -2.7332 C.2       1 <0>         0.3471
      9 O1          6.6753    1.2096   -2.1791 O.2       1 <0>        -0.3532
     10 C8          5.3214   -0.6899   -2.0416 C.ar      1 <0>        -0.1525
     11 C9          4.8579   -1.8445   -2.6750 C.ar      1 <0>        -0.0551
     12 C10         3.9704   -2.6756   -2.0238 C.ar      1 <0>        -0.1582
     13 C11         3.5438   -2.3701   -0.7433 C.ar      1 <0>        -0.0058
     14 C12         3.9948   -1.2246   -0.1122 C.ar      1 <0>        -0.7683
     15 C13         4.8827   -0.3847   -0.7523 C.ar      1 <0>         0.0322
     16 S1          3.4396   -0.8412    1.5155 S.o2      1 <0>         2.7615
     17 O2          4.4321   -0.0071    2.0972 O.2       1 <0>        -0.9070
     18 O3          3.0343   -2.0686    2.1060 O.2       1 <0>        -0.9138
     19 N2          2.0746    0.0837    1.3621 N.pl3     1 <0>        -0.8358
     20 C14         0.7480   -0.5446    1.2973 C.3       1 <0>        -0.0003
     21 C15         0.0259   -0.0435    0.0425 C.3       1 <0>        -0.1784
     22 C16        -0.0031    1.4866    0.0523 C.3       1 <0>        -0.1552
     23 C17         1.4291    2.0258    0.0332 C.3       1 <0>        -0.1781
     24 C18         2.1670    1.5481    1.2878 C.3       1 <0>        -0.0011
     25 O4          6.4733    0.2132   -6.7296 O.3       1 <0>        -0.2962
     26 H1         10.0175    3.0113   -4.1300 H         1 <0>         0.1370
     27 H2          9.7975    3.2599   -6.5674 H         1 <0>         0.1333
     28 H3          8.1250    1.9401   -7.7990 H         1 <0>         0.1413
     29 H4          8.5586    1.4495   -2.9103 H         1 <0>         0.1706
     30 H5          6.4254   -0.9257   -4.3954 H         1 <0>         0.2414
     31 H6          5.1938   -2.0865   -3.6725 H         1 <0>         0.1320
     32 H7          3.6110   -3.5691   -2.5126 H         1 <0>         0.1415
     33 H8          2.8522   -3.0265   -0.2361 H         1 <0>         0.1524
     34 H9          5.2372    0.5071   -0.2569 H         1 <0>         0.1750
     35 H10         0.1722   -0.2747    2.1825 H         1 <0>         0.0919
     36 H11         0.8588   -1.6278    1.2471 H         1 <0>         0.1045
     37 H12        -0.9945   -0.4267    0.0325 H         1 <0>         0.0886
     38 H13         0.5545   -0.3917   -0.8449 H         1 <0>         0.0849
     39 H14        -0.5379    1.8452   -0.8271 H         1 <0>         0.0832
     40 H15        -0.5101    1.8344    0.9523 H         1 <0>         0.0846
     41 H16         1.9444    1.6581   -0.8541 H         1 <0>         0.0870
     42 H17         1.4074    3.1154    0.0166 H         1 <0>         0.0909
     43 H18         1.7069    1.9887    2.1723 H         1 <0>         0.0914
     44 H19         3.2141    1.8458    1.2314 H         1 <0>         0.1099
     45 H20         5.6114    0.6448   -6.8071 H         1 <0>         0.2260
@<TRIPOS>BOND
     1    1    6 ar
     2    1    2 ar
     3    1   26 1
     4    2    3 ar
     5    2   27 1
     6    3    4 ar
     7    3   28 1
     8    4    5 ar
     9    4   25 1
    10    5    6 ar
    11    5    7 1
    12    6   29 1
    13    7    8 am
    14    7   30 1
    15    8    9 2
    16    8   10 1
    17   10   15 ar
    18   10   11 ar
    19   11   12 ar
    20   11   31 1
    21   12   13 ar
    22   12   32 1
    23   13   14 ar
    24   13   33 1
    25   14   15 ar
    26   14   16 1
    27   15   34 1
    28   16   17 2
    29   16   18 2
    30   16   19 1
    31   19   24 1
    32   19   20 1
    33   20   21 1
    34   20   35 1
    35   20   36 1
    36   21   22 1
    37   21   37 1
    38   21   38 1
    39   22   23 1
    40   22   39 1
    41   22   40 1
    42   23   24 1
    43   23   41 1
    44   23   42 1
    45   24   43 1
    46   24   44 1
    47   25   45 1
@<TRIPOS>MOLECULE
ZINC03209767
   42    45     0     0     0
SMALL
USER_CHARGES

@<TRIPOS>ATOM
      1 C1          2.8913   -4.4597   -0.7934 C.3       1 <0>        -0.1577
      2 C2          3.5766   -3.1862   -0.3697 C.2       1 <0>         0.0336
      3 C3          2.9506   -1.9867   -0.0819 C.2       1 <0>        -0.2214
      4 C4          4.0158   -1.0342    0.2776 C.2       1 <0>         0.3454
      5 O1          3.8716    0.1326    0.5915 O.2       1 <0>        -0.3351
      6 N1          5.1814   -1.7078    0.1944 N.am      1 <0>        -0.1811
      7 N2          4.9128   -3.0204   -0.2046 N.pl3     1 <0>        -0.1892
      8 C5          5.9228   -4.0610   -0.4127 C.3       1 <0>        -0.0377
      9 C6          6.4491   -1.1787    0.4566 C.ar      1 <0>         0.0737
     10 C7          6.6719   -0.4476    1.6163 C.ar      1 <0>        -0.1145
     11 C8          7.9260    0.0702    1.8742 C.ar      1 <0>        -0.1135
     12 C9          8.9570   -0.1309    0.9748 C.ar      1 <0>        -0.1319
     13 C10         8.7373   -0.8543   -0.1831 C.ar      1 <0>        -0.1173
     14 C11         7.4867   -1.3785   -0.4448 C.ar      1 <0>        -0.1471
     15 N3          1.6242   -1.7363   -0.1271 N.2       1 <0>        -0.0554
     16 C12         0.8664   -2.0140    0.9122 C.2       1 <0>         0.1197
     17 C13         1.3381   -2.4939    2.2272 C.ar      1 <0>        -0.1104
     18 C14         2.5794   -2.7854    2.7717 C.ar      1 <0>        -0.0849
     19 C15         2.6670   -3.2280    4.0790 C.ar      1 <0>        -0.1131
     20 C16         1.5248   -3.3816    4.8479 C.ar      1 <0>        -0.1279
     21 C17         0.2796   -3.0954    4.3220 C.ar      1 <0>        -0.0848
     22 C18         0.1724   -2.6502    3.0091 C.ar      1 <0>        -0.1320
     23 C19        -0.9497   -2.2613    2.1414 C.2       1 <0>         0.1996
     24 N4         -0.4860   -1.9106    0.9639 N.2       1 <0>        -0.2367
     25 N5         -2.2786   -2.2595    2.5083 N.pl3     1 <0>        -0.3644
     26 H1          1.8150   -4.2947   -0.8409 H         1 <0>         0.1205
     27 H2          3.2566   -4.7594   -1.7757 H         1 <0>         0.0922
     28 H3          3.1067   -5.2462   -0.0701 H         1 <0>         0.0854
     29 H4          5.4292   -5.0081   -0.6302 H         1 <0>         0.1028
     30 H5          6.5626   -3.7839   -1.2505 H         1 <0>         0.0839
     31 H6          6.5281   -4.1651    0.4878 H         1 <0>         0.0896
     32 H7          5.8661   -0.2867    2.3171 H         1 <0>         0.1533
     33 H8          8.1009    0.6357    2.7775 H         1 <0>         0.1375
     34 H9          9.9359    0.2783    1.1769 H         1 <0>         0.1326
     35 H10         9.5446   -1.0092   -0.8837 H         1 <0>         0.1335
     36 H11         7.3156   -1.9428   -1.3497 H         1 <0>         0.1363
     37 H12         3.4737   -2.6671    2.1779 H         1 <0>         0.1471
     38 H13         3.6335   -3.4554    4.5040 H         1 <0>         0.1342
     39 H14         1.6085   -3.7278    5.8675 H         1 <0>         0.1339
     40 H15        -0.6062   -3.2169    4.9277 H         1 <0>         0.1266
     41 H16        -2.9570   -1.9834    1.8723 H         1 <0>         0.2426
     42 H17        -2.5352   -2.5343    3.4025 H         1 <0>         0.2325
@<TRIPOS>BOND
     1    1    2 1
     2    1   26 1
     3    1   27 1
     4    1   28 1
     5    2    7 1
     6    2    3 2
     7    3    4 1
     8    3   15 1
     9    4    5 2
    10    4    6 am
    11    6    7 1
    12    6    9 1
    13    7    8 1
    14    8   29 1
    15    8   30 1
    16    8   31 1
    17    9   14 ar
    18    9   10 ar
    19   10   11 ar
    20   10   32 1
    21   11   12 ar
    22   11   33 1
    23   12   13 ar
    24   12   34 1
    25   13   14 ar
    26   13   35 1
    27   14   36 1
    28   15   16 2
    29   16   24 1
    30   16   17 1
    31   17   22 ar
    32   17   18 ar
    33   18   19 ar
    34   18   37 1
    35   19   20 ar
    36   19   38 1
    37   20   21 ar
    38   20   39 1
    39   21   22 ar
    40   21   40 1
    41   22   23 1
    42   23   24 2
    43   23   25 1
    44   25   41 1
    45   25   42 1
@<TRIPOS>MOLECULE
ZINC03223828
   41    43     0     0     0
SMALL
USER_CHARGES

@<TRIPOS>ATOM
      1 C1          3.1543    7.0917    0.0085 C.3       1 <0>        -0.1781
      2 C2          2.6578    5.6688    0.0059 C.ar      1 <0>        -0.0602
      3 C3          1.9632    5.1784    1.0963 C.ar      1 <0>        -0.1212
      4 C4          1.5072    3.8746    1.0970 C.ar      1 <0>        -0.1081
      5 C5          1.7470    3.0563    0.0014 C.ar      1 <0>         0.0138
      6 C6          2.4496    3.5498   -1.0896 C.ar      1 <0>        -0.1066
      7 C7          2.8981    4.8562   -1.0868 C.ar      1 <0>        -0.1250
      8 N1          1.2854    1.7327   -0.0009 N.pl3     1 <0>        -0.1031
      9 C8          2.0473    0.5847   -0.0143 C.2       1 <0>        -0.0254
     10 N2          1.2143   -0.4300   -0.0118 N.2       1 <0>        -0.0768
     11 N3          0.0021   -0.0041    0.0020 N.2       1 <0>        -0.1142
     12 C9         -0.0158    1.3103    0.0092 C.2       1 <0>        -0.2223
     13 S1         -1.4481    2.3364    0.0219 S.3       1 <0>         0.3366
     14 C10        -2.7417    1.0705    0.0223 C.3       1 <0>        -0.3114
     15 C11        -4.0944    1.7346    0.0327 C.2       1 <0>         0.3172
     16 O1         -4.1759    2.9446    0.0393 O.2       1 <0>        -0.3400
     17 N4         -5.2137    0.9838    0.0347 N.am      1 <0>        -0.3262
     18 N5         -6.4399    1.5858    0.0442 N.3       1 <0>        -0.2107
     19 C12         3.5234    0.5098   -0.0296 C.ar      1 <0>        -0.0132
     20 C13         4.2858    1.6386    0.2756 C.ar      1 <0>        -0.1234
     21 C14         5.6631    1.5605    0.2648 C.ar      1 <0>        -0.1304
     22 C15         6.2890    0.3696   -0.0585 C.ar      1 <0>        -0.1173
     23 C16         5.5393   -0.7516   -0.3671 C.ar      1 <0>        -0.1329
     24 C17         4.1612   -0.6885   -0.3548 C.ar      1 <0>        -0.0860
     25 H1          4.1577    7.1256    0.4330 H         1 <0>         0.0902
     26 H2          3.1793    7.4697   -1.0135 H         1 <0>         0.0867
     27 H3          2.4852    7.7089    0.6080 H         1 <0>         0.0878
     28 H4          1.7767    5.8156    1.9482 H         1 <0>         0.1427
     29 H5          0.9651    3.4920    1.9491 H         1 <0>         0.1517
     30 H6          2.6417    2.9141   -1.9412 H         1 <0>         0.1497
     31 H7          3.4409    5.2420   -1.9370 H         1 <0>         0.1413
     32 H8         -2.6466    0.4537   -0.8714 H         1 <0>         0.1337
     33 H9         -2.6373    0.4446    0.9085 H         1 <0>         0.1387
     34 H10        -5.1486    0.0160    0.0295 H         1 <0>         0.2257
     35 H11        -6.5367    2.2214   -0.7334 H         1 <0>         0.1626
     36 H12        -7.1796    0.8996    0.0446 H         1 <0>         0.1580
     37 H13         3.7985    2.5700    0.5234 H         1 <0>         0.1444
     38 H14         6.2541    2.4319    0.5051 H         1 <0>         0.1323
     39 H15         7.3675    0.3149   -0.0696 H         1 <0>         0.1305
     40 H16         6.0340   -1.6781   -0.6186 H         1 <0>         0.1350
     41 H17         3.5772   -1.5643   -0.5959 H         1 <0>         0.1539
@<TRIPOS>BOND
     1    1    2 1
     2    1   25 1
     3    1   26 1
     4    1   27 1
     5    2    7 ar
     6    2    3 ar
     7    3    4 ar
     8    3   28 1
     9    4    5 ar
    10    4   29 1
    11    5    6 ar
    12    5    8 1
    13    6    7 ar
    14    6   30 1
    15    7   31 1
    16    8   12 1
    17    8    9 1
    18    9   10 2
    19    9   19 1
    20   10   11 1
    21   11   12 2
    22   12   13 1
    23   13   14 1
    24   14   15 1
    25   14   32 1
    26   14   33 1
    27   15   16 2
    28   15   17 am
    29   17   18 1
    30   17   34 1
    31   18   35 1
    32   18   36 1
    33   19   24 ar
    34   19   20 ar
    35   20   21 ar
    36   20   37 1
    37   21   22 ar
    38   21   38 1
    39   22   23 ar
    40   22   39 1
    41   23   24 ar
    42   23   40 1
    43   24   41 1
@<TRIPOS>MOLECULE
ZINC03231911
   43    45     0     0     0
SMALL
USER_CHARGES

@<TRIPOS>ATOM
      1 C1          2.2383    9.6253   -0.0793 C.3       1 <0>        -0.1791
      2 C2          2.2609    8.1187   -0.0543 C.2       1 <0>         0.0502
      3 C3          3.4034    7.4733   -0.1965 C.2       1 <0>        -0.2817
      4 C4          3.4103    5.9712   -0.3175 C.3       1 <0>        -0.0699
      5 C5          4.0563    5.5751   -1.6201 C.ar      1 <0>        -0.0634
      6 C6          5.4201    5.3552   -1.6749 C.ar      1 <0>        -0.1241
      7 C7          6.0172    4.9912   -2.8673 C.ar      1 <0>        -0.1109
      8 C8          5.2494    4.8464   -4.0114 C.ar      1 <0>        -0.0015
      9 C9          3.8755    5.0680   -3.9562 C.ar      1 <0>         0.0059
     10 C10         3.2831    5.4269   -2.7564 C.ar      1 <0>        -0.1075
     11 O1          3.3503    4.8632   -5.1994 O.3       1 <0>        -0.2085
     12 C11         4.3493    4.1185   -5.9209 C.3       1 <0>         0.1070
     13 O2          5.5848    4.5027   -5.2892 O.3       1 <0>        -0.2095
     14 N1          1.0792    7.4091    0.1184 N.pl3     1 <0>        -0.2729
     15 N2         -0.1463    8.0871    0.1533 N.am      1 <0>        -0.2718
     16 C12        -1.2994    7.3922    0.2149 C.2       1 <0>         0.3415
     17 O3         -1.2762    6.1771    0.2401 O.2       1 <0>        -0.3595
     18 C13        -2.5927    8.1077    0.2519 C.ar      1 <0>        -0.1237
     19 C14        -2.6229    9.5030    0.2231 C.ar      1 <0>        -0.0722
     20 C15        -3.8329   10.1644    0.2573 C.ar      1 <0>        -0.1395
     21 C16        -5.0150    9.4479    0.3206 C.ar      1 <0>        -0.0494
     22 C17        -4.9919    8.0651    0.3547 C.ar      1 <0>        -0.1177
     23 C18        -3.7885    7.3911    0.3152 C.ar      1 <0>        -0.0107
     24 N3         -6.2609    7.3069    0.4285 N.pl3     1 <0>         0.5483
     25 O4         -7.3241    7.9004    0.4591 O.2       1 <0>        -0.3525
     26 O5         -6.2421    6.0894    0.4586 O.3       1 <0>        -0.3419
     27 H1          2.3703   10.0075    0.9330 H         1 <0>         0.0921
     28 H2          3.0461    9.9903   -0.7136 H         1 <0>         0.1039
     29 H3          1.2823    9.9678   -0.4752 H         1 <0>         0.0685
     30 H4          4.3333    8.0218   -0.2262 H         1 <0>         0.1450
     31 H5          3.9726    5.5425    0.5121 H         1 <0>         0.0949
     32 H6          2.3858    5.5999   -0.2923 H         1 <0>         0.0830
     33 H7          6.0204    5.4683   -0.7842 H         1 <0>         0.1389
     34 H8          7.0828    4.8200   -2.9072 H         1 <0>         0.1423
     35 H9          2.2173    5.5951   -2.7097 H         1 <0>         0.1460
     36 H10         4.1808    3.0471   -5.8127 H         1 <0>         0.0880
     37 H11         4.3528    4.4023   -6.9733 H         1 <0>         0.1290
     38 H12         1.1025    6.4442    0.2147 H         1 <0>         0.2851
     39 H13        -0.1649    9.0567    0.1332 H         1 <0>         0.2488
     40 H14        -1.7010   10.0634    0.1744 H         1 <0>         0.1344
     41 H15        -3.8577   11.2439    0.2351 H         1 <0>         0.1520
     42 H16        -5.9597    9.9706    0.3479 H         1 <0>         0.1698
     43 H17        -3.7720    6.3114    0.3377 H         1 <0>         0.1933
@<TRIPOS>BOND
     1    1    2 1
     2    1   27 1
     3    1   28 1
     4    1   29 1
     5    2    3 2
     6    2   14 1
     7    3    4 1
     8    3   30 1
     9    4    5 1
    10    4   31 1
    11    4   32 1
    12    5   10 ar
    13    5    6 ar
    14    6    7 ar
    15    6   33 1
    16    7    8 ar
    17    7   34 1
    18    8   13 1
    19    8    9 ar
    20    9   10 ar
    21    9   11 1
    22   10   35 1
    23   11   12 1
    24   12   13 1
    25   12   36 1
    26   12   37 1
    27   14   15 1
    28   14   38 1
    29   15   16 am
    30   15   39 1
    31   16   17 2
    32   16   18 1
    33   18   23 ar
    34   18   19 ar
    35   19   20 ar
    36   19   40 1
    37   20   21 ar
    38   20   41 1
    39   21   22 ar
    40   21   42 1
    41   22   23 ar
    42   22   24 1
    43   23   43 1
    44   24   25 2
    45   24   26 1
@<TRIPOS>MOLECULE
ZINC03232480
   40    41     0     0     0
SMALL
USER_CHARGES

@<TRIPOS>ATOM
      1 C1          0.7478    1.4942   -0.8153 C.3       1 <0>        -0.2273
      2 C2         -0.4360    0.8437   -0.0966 C.3       1 <0>         0.0256
      3 C3         -1.6901    0.9677   -0.9642 C.3       1 <0>        -0.2282
      4 N1         -0.6599    1.5180    1.1845 N.am      1 <0>        -0.3005
      5 C4         -0.8379    2.9054    1.2232 C.ar      1 <0>         0.0592
      6 C5         -2.1171    3.4442    1.1822 C.ar      1 <0>        -0.1135
      7 C6         -2.2897    4.8138    1.2268 C.ar      1 <0>        -0.1238
      8 C7         -1.1898    5.6487    1.3003 C.ar      1 <0>        -0.1212
      9 C8          0.0856    5.1155    1.3352 C.ar      1 <0>        -0.1245
     10 C9          0.2646    3.7466    1.2971 C.ar      1 <0>        -0.1194
     11 C10        -0.6944    0.8021    2.3259 C.2       1 <0>         0.3191
     12 O1         -0.9642    1.3467    3.3755 O.2       1 <0>        -0.3387
     13 C11        -0.3978   -0.6752    2.2980 C.3       1 <0>        -0.3012
     14 S1         -0.5235   -1.3475    3.9738 S.3       1 <0>         0.3154
     15 C12        -0.1399   -3.0375    3.6550 C.2       1 <0>         0.0121
     16 N2         -0.1240   -3.9247    4.6886 N.am      1 <0>        -0.2774
     17 H1         -0.3286   -3.6134    5.6166 H         1 <0>         0.2569
     18 C13         0.1673   -5.2227    4.4627 C.2       1 <0>         0.3477
     19 O2          0.1838   -6.0246    5.3834 O.2       1 <0>        -0.3774
     20 C14         0.4502   -5.6340    3.1567 C.2       1 <0>        -0.4098
     21 C15         0.4213   -4.6909    2.1388 C.2       1 <0>         0.2277
     22 N3          0.1203   -3.4185    2.4212 N.2       1 <0>        -0.3164
     23 N4          0.6961   -5.0657    0.8389 N.pl3     1 <0>        -0.3832
     24 H2          0.4821    2.5104   -1.1065 H         1 <0>         0.0913
     25 H3          1.6084    1.5209   -0.1470 H         1 <0>         0.0831
     26 H4          0.9960    0.9146   -1.7045 H         1 <0>         0.0838
     27 H5         -0.2193   -0.2098    0.0803 H         1 <0>         0.1044
     28 H6         -1.5601    0.3848   -1.8761 H         1 <0>         0.0838
     29 H7         -2.5520    0.5923   -0.4127 H         1 <0>         0.0829
     30 H8         -1.8515    2.0144   -1.2220 H         1 <0>         0.0903
     31 H9         -2.9763    2.7928    1.1200 H         1 <0>         0.1379
     32 H10        -3.2845    5.2333    1.1998 H         1 <0>         0.1339
     33 H11        -1.3272    6.7195    1.3302 H         1 <0>         0.1318
     34 H12         0.9426    5.7702    1.3926 H         1 <0>         0.1335
     35 H13         1.2610    3.3307    1.3243 H         1 <0>         0.1359
     36 H14        -1.1160   -1.1778    1.6501 H         1 <0>         0.1390
     37 H15         0.6105   -0.8362    1.9166 H         1 <0>         0.1397
     38 H16         0.6866   -6.6661    2.9439 H         1 <0>         0.1642
     39 H17         0.9101   -5.9897    0.6356 H         1 <0>         0.2376
     40 H18         0.6754   -4.4051    0.1290 H         1 <0>         0.2254
@<TRIPOS>BOND
     1    1    2 1
     2    1   24 1
     3    1   25 1
     4    1   26 1
     5    2    3 1
     6    2    4 1
     7    2   27 1
     8    3   28 1
     9    3   29 1
    10    3   30 1
    11    4    5 1
    12    4   11 am
    13    5   10 ar
    14    5    6 ar
    15    6    7 ar
    16    6   31 1
    17    7    8 ar
    18    7   32 1
    19    8    9 ar
    20    8   33 1
    21    9   10 ar
    22    9   34 1
    23   10   35 1
    24   11   12 2
    25   11   13 1
    26   13   14 1
    27   13   36 1
    28   13   37 1
    29   14   15 1
    30   15   22 2
    31   15   16 1
    32   16   17 1
    33   16   18 am
    34   18   19 2
    35   18   20 1
    36   20   21 2
    37   20   38 1
    38   21   22 1
    39   21   23 1
    40   23   39 1
    41   23   40 1
@<TRIPOS>MOLECULE
ZINC03232480
   40    41     0     0     0
SMALL
USER_CHARGES

@<TRIPOS>ATOM
      1 C1          0.7478    1.4942   -0.8153 C.3       1 <0>        -0.2273
      2 C2         -0.4360    0.8437   -0.0966 C.3       1 <0>         0.0269
      3 C3         -1.6901    0.9677   -0.9642 C.3       1 <0>        -0.2282
      4 N1         -0.6599    1.5180    1.1845 N.am      1 <0>        -0.3049
      5 C4         -0.8379    2.9054    1.2232 C.ar      1 <0>         0.0632
      6 C5         -2.1171    3.4442    1.1822 C.ar      1 <0>        -0.1141
      7 C6         -2.2897    4.8138    1.2268 C.ar      1 <0>        -0.1246
      8 C7         -1.1898    5.6487    1.3003 C.ar      1 <0>        -0.1234
      9 C8          0.0856    5.1155    1.3352 C.ar      1 <0>        -0.1254
     10 C9          0.2646    3.7466    1.2971 C.ar      1 <0>        -0.1200
     11 C10        -0.6944    0.8021    2.3259 C.2       1 <0>         0.3206
     12 O1         -0.9642    1.3467    3.3755 O.2       1 <0>        -0.3376
     13 C11        -0.3978   -0.6752    2.2980 C.3       1 <0>        -0.3229
     14 S1         -0.5235   -1.3475    3.9738 S.3       1 <0>         0.3710
     15 C12        -0.1399   -3.0375    3.6550 C.ar      1 <0>        -0.0070
     16 N2         -0.1122   -3.9223    4.6904 N.ar      1 <0>        -0.2819
     17 H1          0.4337   -6.9278    5.0343 H         1 <0>         0.2641
     18 C13         0.1794   -5.2203    4.4645 C.ar      1 <0>         0.2597
     19 O2          0.2011   -6.0211    5.3861 O.3       1 <0>        -0.1718
     20 C14         0.4437   -5.6353    3.1558 C.ar      1 <0>        -0.4850
     21 C15         0.4090   -4.6934    2.1370 C.ar      1 <0>         0.2605
     22 N3          0.1143   -3.4197    2.4203 N.ar      1 <0>        -0.3496
     23 N4          0.6776   -5.0695    0.8362 N.pl3     1 <0>        -0.3861
     24 H2          0.4821    2.5104   -1.1065 H         1 <0>         0.0897
     25 H3          1.6084    1.5209   -0.1470 H         1 <0>         0.0832
     26 H4          0.9960    0.9146   -1.7045 H         1 <0>         0.0813
     27 H5         -0.2193   -0.2098    0.0803 H         1 <0>         0.1068
     28 H6         -1.5601    0.3848   -1.8761 H         1 <0>         0.0812
     29 H7         -2.5520    0.5923   -0.4127 H         1 <0>         0.0833
     30 H8         -1.8515    2.0144   -1.2220 H         1 <0>         0.0886
     31 H9         -2.9763    2.7928    1.1200 H         1 <0>         0.1379
     32 H10        -3.2845    5.2333    1.1998 H         1 <0>         0.1325
     33 H11        -1.3272    6.7195    1.3302 H         1 <0>         0.1302
     34 H12         0.9426    5.7702    1.3926 H         1 <0>         0.1320
     35 H13         1.2610    3.3307    1.3243 H         1 <0>         0.1358
     36 H14        -1.1160   -1.1778    1.6501 H         1 <0>         0.1330
     37 H15         0.6105   -0.8362    1.9166 H         1 <0>         0.1336
     38 H16         0.6752   -6.6683    2.9424 H         1 <0>         0.1343
     39 H17         0.8870   -5.9944    0.6322 H         1 <0>         0.2307
     40 H18         0.6571   -4.4089    0.1263 H         1 <0>         0.2298
@<TRIPOS>BOND
     1    1    2 1
     2    1   24 1
     3    1   25 1
     4    1   26 1
     5    2    3 1
     6    2    4 1
     7    2   27 1
     8    3   28 1
     9    3   29 1
    10    3   30 1
    11    4    5 1
    12    4   11 am
    13    5   10 ar
    14    5    6 ar
    15    6    7 ar
    16    6   31 1
    17    7    8 ar
    18    7   32 1
    19    8    9 ar
    20    8   33 1
    21    9   10 ar
    22    9   34 1
    23   10   35 1
    24   11   12 2
    25   11   13 1
    26   13   14 1
    27   13   36 1
    28   13   37 1
    29   14   15 1
    30   15   22 ar
    31   15   16 ar
    32   16   18 ar
    33   17   19 1
    34   18   19 1
    35   18   20 ar
    36   20   38 1
    37   20   21 ar
    38   21   23 1
    39   21   22 ar
    40   23   39 1
    41   23   40 1
@<TRIPOS>MOLECULE
ZINC03232480
   40    41     0     0     0
SMALL
USER_CHARGES

@<TRIPOS>ATOM
      1 C1          0.7478    1.4942   -0.8153 C.3       1 <0>        -0.2273
      2 C2         -0.4360    0.8437   -0.0966 C.3       1 <0>         0.0269
      3 C3         -1.6901    0.9677   -0.9642 C.3       1 <0>        -0.2282
      4 N1         -0.6599    1.5180    1.1845 N.am      1 <0>        -0.3049
      5 C4         -0.8379    2.9054    1.2232 C.ar      1 <0>         0.0632
      6 C5         -2.1171    3.4442    1.1822 C.ar      1 <0>        -0.1141
      7 C6         -2.2897    4.8138    1.2268 C.ar      1 <0>        -0.1246
      8 C7         -1.1898    5.6487    1.3003 C.ar      1 <0>        -0.1234
      9 C8          0.0856    5.1155    1.3352 C.ar      1 <0>        -0.1254
     10 C9          0.2646    3.7466    1.2971 C.ar      1 <0>        -0.1200
     11 C10        -0.6944    0.8021    2.3259 C.2       1 <0>         0.3206
     12 O1         -0.9642    1.3467    3.3755 O.2       1 <0>        -0.3376
     13 C11        -0.3978   -0.6752    2.2980 C.3       1 <0>        -0.3229
     14 S1         -0.5235   -1.3475    3.9738 S.3       1 <0>         0.3710
     15 C12        -0.1399   -3.0375    3.6550 C.ar      1 <0>        -0.0070
     16 N2         -0.1122   -3.9223    4.6904 N.ar      1 <0>        -0.2819
     17 H1          0.4337   -6.9278    5.0343 H         1 <0>         0.2641
     18 C13         0.1794   -5.2203    4.4645 C.ar      1 <0>         0.2597
     19 O2          0.2011   -6.0211    5.3861 O.3       1 <0>        -0.1718
     20 C14         0.4437   -5.6353    3.1558 C.ar      1 <0>        -0.4850
     21 C15         0.4090   -4.6934    2.1370 C.ar      1 <0>         0.2605
     22 N3          0.1143   -3.4197    2.4203 N.ar      1 <0>        -0.3496
     23 N4          0.6776   -5.0695    0.8362 N.pl3     1 <0>        -0.3861
     24 H2          0.4821    2.5104   -1.1065 H         1 <0>         0.0897
     25 H3          1.6084    1.5209   -0.1470 H         1 <0>         0.0832
     26 H4          0.9960    0.9146   -1.7045 H         1 <0>         0.0813
     27 H5         -0.2193   -0.2098    0.0803 H         1 <0>         0.1068
     28 H6         -1.5601    0.3848   -1.8761 H         1 <0>         0.0812
     29 H7         -2.5520    0.5923   -0.4127 H         1 <0>         0.0833
     30 H8         -1.8515    2.0144   -1.2220 H         1 <0>         0.0886
     31 H9         -2.9763    2.7928    1.1200 H         1 <0>         0.1379
     32 H10        -3.2845    5.2333    1.1998 H         1 <0>         0.1325
     33 H11        -1.3272    6.7195    1.3302 H         1 <0>         0.1302
     34 H12         0.9426    5.7702    1.3926 H         1 <0>         0.1320
     35 H13         1.2610    3.3307    1.3243 H         1 <0>         0.1358
     36 H14        -1.1160   -1.1778    1.6501 H         1 <0>         0.1330
     37 H15         0.6105   -0.8362    1.9166 H         1 <0>         0.1336
     38 H16         0.6752   -6.6683    2.9424 H         1 <0>         0.1343
     39 H17         0.8870   -5.9944    0.6322 H         1 <0>         0.2307
     40 H18         0.6571   -4.4089    0.1263 H         1 <0>         0.2298
@<TRIPOS>BOND
     1    1    2 1
     2    1   24 1
     3    1   25 1
     4    1   26 1
     5    2    3 1
     6    2    4 1
     7    2   27 1
     8    3   28 1
     9    3   29 1
    10    3   30 1
    11    4    5 1
    12    4   11 am
    13    5   10 ar
    14    5    6 ar
    15    6    7 ar
    16    6   31 1
    17    7    8 ar
    18    7   32 1
    19    8    9 ar
    20    8   33 1
    21    9   10 ar
    22    9   34 1
    23   10   35 1
    24   11   12 2
    25   11   13 1
    26   13   14 1
    27   13   36 1
    28   13   37 1
    29   14   15 1
    30   15   22 ar
    31   15   16 ar
    32   16   18 ar
    33   17   19 1
    34   18   19 1
    35   18   20 ar
    36   20   38 1
    37   20   21 ar
    38   21   23 1
    39   21   22 ar
    40   23   39 1
    41   23   40 1
@<TRIPOS>MOLECULE
ZINC03233731
   41    42     0     0     0
SMALL
USER_CHARGES

@<TRIPOS>ATOM
      1 C1          9.9266   -6.1800    2.5858 C.3       1 <0>        -0.2169
      2 C2          8.8651   -7.0838    1.9557 C.3       1 <0>         0.0126
      3 O1          7.9367   -6.2758    1.1854 O.3       1 <0>        -0.2797
      4 C3          6.9343   -6.9233    0.5621 C.2       1 <0>         0.4140
      5 O2          6.8379   -8.1307    0.6591 O.2       1 <0>        -0.4281
      6 N1          6.0378   -6.2323   -0.1696 N.am      1 <0>        -0.3418
      7 C4          4.9292   -6.9104   -0.8635 C.3       1 <0>         0.0173
      8 C5          3.6158   -6.3842   -0.2744 C.3       1 <0>        -0.1459
      9 C6          3.6574   -4.8891   -0.1630 C.2       1 <0>         0.0864
     10 C7          4.7520   -4.1785   -0.1658 C.2       1 <0>        -0.3354
     11 C8          6.1262   -4.7715   -0.3071 C.3       1 <0>         0.0529
     12 N2          2.4487   -4.2152   -0.0430 N.pl3     1 <0>        -0.2723
     13 N3          2.4246   -2.8144   -0.0429 N.am      1 <0>        -0.2722
     14 C9          1.2461   -2.1606   -0.0287 C.2       1 <0>         0.3455
     15 O3          0.2038   -2.7865   -0.0160 O.2       1 <0>        -0.3750
     16 C10         1.2208   -0.6848   -0.0286 C.ar      1 <0>        -0.1338
     17 C11         0.0000   -0.0051   -0.0140 C.ar      1 <0>        -0.0492
     18 C12        -0.0194    1.3718   -0.0135 C.ar      1 <0>        -0.1646
     19 C13         1.1733    2.0854   -0.0275 C.ar      1 <0>         0.0984
     20 C14         2.3897    1.4131   -0.0421 C.ar      1 <0>        -0.1628
     21 C15         2.4176    0.0363   -0.0427 C.ar      1 <0>        -0.0929
     22 O4          1.1500    3.4423   -0.0275 O.3       1 <0>        -0.2907
     23 H1          9.4441   -5.4558    3.2422 H         1 <0>         0.0854
     24 H2         10.6236   -6.7866    3.1641 H         1 <0>         0.0905
     25 H3         10.4685   -5.6536    1.8001 H         1 <0>         0.0853
     26 H4          8.3232   -7.6102    2.7414 H         1 <0>         0.0903
     27 H5          9.3477   -7.8080    1.2993 H         1 <0>         0.0901
     28 H6          4.9729   -6.6911   -1.9303 H         1 <0>         0.0916
     29 H7          4.9985   -7.9867   -0.7053 H         1 <0>         0.1302
     30 H8          3.4618   -6.8153    0.7148 H         1 <0>         0.1129
     31 H9          2.7897   -6.6744   -0.9237 H         1 <0>         0.1012
     32 H10         4.6660   -3.1070   -0.0613 H         1 <0>         0.1179
     33 H11         6.5316   -4.5218   -1.2876 H         1 <0>         0.0827
     34 H12         6.7776   -4.3704    0.4693 H         1 <0>         0.1107
     35 H13         1.6213   -4.7144    0.0408 H         1 <0>         0.2737
     36 H14         3.2562   -2.3150   -0.0530 H         1 <0>         0.2561
     37 H15        -0.9271   -0.5590   -0.0027 H         1 <0>         0.1621
     38 H16        -0.9626    1.8978   -0.0066 H         1 <0>         0.1486
     39 H17         3.3143    1.9712   -0.0534 H         1 <0>         0.1450
     40 H18         3.3632   -0.4854   -0.0537 H         1 <0>         0.1264
     41 H19         1.1536    3.8357    0.8559 H         1 <0>         0.2340
@<TRIPOS>BOND
     1    1    2 1
     2    1   23 1
     3    1   24 1
     4    1   25 1
     5    2    3 1
     6    2   26 1
     7    2   27 1
     8    3    4 1
     9    4    5 2
    10    4    6 am
    11    6   11 1
    12    6    7 1
    13    7    8 1
    14    7   28 1
    15    7   29 1
    16    8    9 1
    17    8   30 1
    18    8   31 1
    19    9   10 2
    20    9   12 1
    21   10   11 1
    22   10   32 1
    23   11   33 1
    24   11   34 1
    25   12   13 1
    26   12   35 1
    27   13   14 am
    28   13   36 1
    29   14   15 2
    30   14   16 1
    31   16   21 ar
    32   16   17 ar
    33   17   18 ar
    34   17   37 1
    35   18   19 ar
    36   18   38 1
    37   19   20 ar
    38   19   22 1
    39   20   21 ar
    40   20   39 1
    41   21   40 1
    42   22   41 1
@<TRIPOS>MOLECULE
ZINC03233795
   40    43     0     0     0
SMALL
USER_CHARGES

@<TRIPOS>ATOM
      1 C1          2.3315   -9.2596   -0.3326 C.ar      1 <0>        -0.0862
      2 C2          3.2277  -10.2964   -0.4761 C.ar      1 <0>        -0.1609
      3 C3          4.5429  -10.0394   -0.8416 C.ar      1 <0>         0.0797
      4 C4          4.9657   -8.7332   -1.0647 C.ar      1 <0>         0.0110
      5 C5          4.0707   -7.6823   -0.9283 C.ar      1 <0>         0.1094
      6 C6          2.7444   -7.9424   -0.5545 C.ar      1 <0>        -0.0910
      7 C7          1.7887   -6.8332   -0.4023 C.2       1 <0>        -0.0847
      8 N1          2.1749   -5.6099   -0.6091 N.2       1 <0>         0.0078
      9 N2          1.2965   -4.5468   -0.3624 N.am      1 <0>        -0.1976
     10 C8          0.0170   -4.8325   -0.0160 C.2       1 <0>         0.0248
     11 N3         -0.8812   -3.9043    0.2350 N.2       1 <0>        -0.1488
     12 C9         -0.4933   -2.6371    0.1379 C.2       1 <0>        -0.1565
     13 C10         0.8155   -2.2390   -0.2154 C.2       1 <0>        -0.2354
     14 C11         1.7647   -3.2817   -0.4809 C.2       1 <0>         0.3784
     15 O1          2.9189   -3.0438   -0.7936 O.2       1 <0>        -0.3144
     16 C12         1.0566   -0.8083   -0.2716 C.2       1 <0>        -0.0460
     17 C13         0.0071   -0.0040    0.0189 C.2       1 <0>        -0.2864
     18 S1         -1.3377   -1.1060    0.3771 S.3       1 <0>         0.4264
     19 C14        -0.0111    1.4933    0.0344 C.3       1 <0>        -0.0767
     20 C15         1.4390    1.9974    0.0328 C.3       1 <0>        -0.1570
     21 C16         2.2173    1.2469   -1.0519 C.3       1 <0>        -0.1634
     22 C17         2.4133   -0.2110   -0.6358 C.3       1 <0>        -0.1030
     23 O2          4.4787   -6.4056   -1.1512 O.3       1 <0>        -0.2602
     24 O3          6.2556   -8.4868   -1.4221 O.3       1 <0>        -0.2670
     25 O4          5.4201  -11.0681   -0.9813 O.3       1 <0>        -0.2751
     26 H1          1.3098   -9.4645   -0.0490 H         1 <0>         0.1387
     27 H2          2.9061  -11.3129   -0.3041 H         1 <0>         0.1497
     28 H3          0.7666   -7.0361   -0.1188 H         1 <0>         0.1220
     29 H4         -0.2782   -5.8688    0.0570 H         1 <0>         0.1905
     30 H5         -0.5282    1.8625   -0.8513 H         1 <0>         0.0974
     31 H6         -0.5200    1.8442    0.9322 H         1 <0>         0.0939
     32 H7          1.4544    3.0664   -0.1793 H         1 <0>         0.0849
     33 H8          1.8930    1.8085    1.0057 H         1 <0>         0.0899
     34 H9          3.1905    1.7179   -1.1908 H         1 <0>         0.0856
     35 H10         1.6598    1.2846   -1.9877 H         1 <0>         0.0865
     36 H11         3.0766   -0.2580    0.2279 H         1 <0>         0.1014
     37 H12         2.8486   -0.7713   -1.4632 H         1 <0>         0.1178
     38 H13         4.8215   -5.9592   -0.3649 H         1 <0>         0.2534
     39 H14         6.4063   -8.4892   -2.3773 H         1 <0>         0.2309
     40 H15         5.4517  -11.4396   -1.8736 H         1 <0>         0.2303
@<TRIPOS>BOND
     1    1    6 ar
     2    1    2 ar
     3    1   26 1
     4    2    3 ar
     5    2   27 1
     6    3    4 ar
     7    3   25 1
     8    4    5 ar
     9    4   24 1
    10    5    6 ar
    11    5   23 1
    12    6    7 1
    13    7    8 2
    14    7   28 1
    15    8    9 1
    16    9   14 am
    17    9   10 1
    18   10   11 2
    19   10   29 1
    20   11   12 1
    21   12   18 1
    22   12   13 2
    23   13   14 1
    24   13   16 1
    25   14   15 2
    26   16   22 1
    27   16   17 2
    28   17   18 1
    29   17   19 1
    30   19   20 1
    31   19   30 1
    32   19   31 1
    33   20   21 1
    34   20   32 1
    35   20   33 1
    36   21   22 1
    37   21   34 1
    38   21   35 1
    39   22   36 1
    40   22   37 1
    41   23   38 1
    42   24   39 1
    43   25   40 1
@<TRIPOS>MOLECULE
ZINC03234083
   44    46     0     0     0
SMALL
USER_CHARGES

@<TRIPOS>ATOM
      1 C1         -2.7689    9.2234   -1.8824 C.ar      1 <0>        -0.1575
      2 C2         -3.1145    9.9172   -3.0315 C.ar      1 <0>        -0.0710
      3 C3         -3.1954    9.2643   -4.2441 C.ar      1 <0>        -0.1952
      4 C4         -2.9299    7.9025   -4.3205 C.ar      1 <0>         0.1362
      5 C5         -2.5793    7.1973   -3.1589 C.ar      1 <0>        -0.1593
      6 C6         -2.5065    7.8723   -1.9375 C.ar      1 <0>        -0.0847
      7 C7         -2.2956    5.7520   -3.2257 C.2       1 <0>         0.3532
      8 O1         -2.3650    5.1674   -4.2897 O.2       1 <0>        -0.3954
      9 N1         -1.9593    5.0789   -2.1076 N.am      1 <0>        -0.2648
     10 N2         -1.6896    3.7055   -2.1711 N.pl3     1 <0>        -0.2770
     11 C8         -1.4460    2.9909   -1.0051 C.2       1 <0>         0.0705
     12 C9         -1.3734    3.6537    0.1166 C.2       1 <0>        -0.3024
     13 C10        -1.1068    3.0179    1.4497 C.3       1 <0>        -0.0968
     14 C11        -1.3520    1.5101    1.3767 C.3       1 <0>        -0.1618
     15 C12        -0.6139    0.9552    0.1520 C.3       1 <0>        -0.1518
     16 C13        -1.2816    1.5029   -1.1111 C.3       1 <0>        -0.1202
     17 N3         -3.0107    7.2429   -5.5399 N.pl3     1 <0>        -0.7948
     18 S1         -2.5479    8.0138   -6.9305 S.o2      1 <0>         2.7935
     19 O2         -2.6163    7.0492   -7.9717 O.2       1 <0>        -0.8961
     20 O3         -3.2699    9.2368   -6.9765 O.2       1 <0>        -0.9136
     21 C14        -0.8477    8.4393   -6.7492 C.2       1 <0>        -0.9553
     22 C15         0.2523    7.7206   -7.0821 C.2       1 <0>        -0.0235
     23 C16         1.5026    8.2609   -6.8465 C.2       1 <0>        -0.2090
     24 C17         1.5918    9.4935   -6.2896 C.2       1 <0>        -0.2762
     25 S2         -0.1268    9.9321   -6.0865 S.3       1 <0>         0.4403
     26 H1         -2.7088    9.7442   -0.9381 H         1 <0>         0.1359
     27 H2         -3.3221   10.9757   -2.9772 H         1 <0>         0.1407
     28 H3         -3.4657    9.8121   -5.1348 H         1 <0>         0.1917
     29 H4         -2.2417    7.3359   -1.0383 H         1 <0>         0.1263
     30 H5         -1.9039    5.5453   -1.2588 H         1 <0>         0.2584
     31 H6         -1.6731    3.2537   -3.0293 H         1 <0>         0.2720
     32 H7         -1.5140    4.7240    0.0837 H         1 <0>         0.1058
     33 H8         -0.0705    3.1984    1.7352 H         1 <0>         0.0819
     34 H9         -1.7689    3.4548    2.1973 H         1 <0>         0.0812
     35 H10        -2.4208    1.3207    1.2771 H         1 <0>         0.0859
     36 H11        -0.9747    1.0307    2.2800 H         1 <0>         0.0819
     37 H12        -0.6693   -0.1334    0.1531 H         1 <0>         0.0847
     38 H13         0.4297    1.2689    0.1801 H         1 <0>         0.0895
     39 H14        -0.6630    1.2685   -1.9774 H         1 <0>         0.0910
     40 H15        -2.2615    1.0407   -1.2312 H         1 <0>         0.0994
     41 H16        -3.3382    6.3306   -5.5771 H         1 <0>         0.2861
     42 H17         0.1533    6.7406   -7.5250 H         1 <0>         0.1598
     43 H18         2.3951    7.7094   -7.1027 H         1 <0>         0.1497
     44 H19         2.4736   10.0639   -6.0379 H         1 <0>         0.1907
@<TRIPOS>BOND
     1    1    6 ar
     2    1    2 ar
     3    1   26 1
     4    2    3 ar
     5    2   27 1
     6    3    4 ar
     7    3   28 1
     8    4    5 ar
     9    4   17 1
    10    5    6 ar
    11    5    7 1
    12    6   29 1
    13    7    8 2
    14    7    9 am
    15    9   10 1
    16    9   30 1
    17   10   11 1
    18   10   31 1
    19   11   16 1
    20   11   12 2
    21   12   13 1
    22   12   32 1
    23   13   14 1
    24   13   33 1
    25   13   34 1
    26   14   15 1
    27   14   35 1
    28   14   36 1
    29   15   16 1
    30   15   37 1
    31   15   38 1
    32   16   39 1
    33   16   40 1
    34   17   18 1
    35   17   41 1
    36   18   19 2
    37   18   20 2
    38   18   21 1
    39   21   25 1
    40   21   22 2
    41   22   23 1
    42   22   42 1
    43   23   24 2
    44   23   43 1
    45   24   25 1
    46   24   44 1
@<TRIPOS>MOLECULE
ZINC03235207
   42    44     0     0     0
SMALL
USER_CHARGES

@<TRIPOS>ATOM
      1 C1         -1.2149    1.7487    0.0173 C.ar      1 <0>        -0.1348
      2 C2         -0.0126    1.0758    0.0080 C.ar      1 <0>        -0.0973
      3 C3          1.1894    1.7921    0.0003 C.ar      1 <0>        -0.0947
      4 C4          1.1613    3.1938    0.0082 C.ar      1 <0>         0.0985
      5 C5         -0.0605    3.8571    0.0234 C.ar      1 <0>         0.0335
      6 C6         -1.2419    3.1333    0.0313 C.ar      1 <0>        -0.1215
      7 O1         -0.0959    5.2166    0.0311 O.3       1 <0>        -0.2737
      8 O2          2.3213    3.8999    0.0004 O.3       1 <0>        -0.2522
      9 C7          2.4750    1.0786   -0.0163 C.2       1 <0>         0.0097
     10 N1          3.5929    1.7496   -0.0234 N.2       1 <0>        -0.1506
     11 C8          4.7895    1.0855   -0.0389 C.ar      1 <0>         0.0496
     12 C9          4.9989   -0.0029    0.8110 C.ar      1 <0>        -0.1885
     13 C10         6.2056   -0.6705    0.7866 C.ar      1 <0>        -0.0141
     14 C11         7.2111   -0.2580   -0.0699 C.ar      1 <0>        -0.7728
     15 C12         7.0125    0.8230   -0.9105 C.ar      1 <0>        -0.0195
     16 C13         5.8089    1.4966   -0.9005 C.ar      1 <0>        -0.1388
     17 S1          8.7516   -1.1130   -0.0898 S.o2      1 <0>         2.7817
     18 O3          8.4952   -2.4234    0.3963 O.2       1 <0>        -0.9158
     19 O4          9.3326   -0.8733   -1.3643 O.2       1 <0>        -0.9142
     20 N2          9.7334   -0.3788    1.0235 N.pl3     1 <0>        -0.8499
     21 C14        10.6478    0.7404    0.7537 C.3       1 <0>         0.0024
     22 C15        11.3688    1.0725    2.0770 C.3       1 <0>        -0.1710
     23 C16        11.2433   -0.2493    2.8799 C.3       1 <0>        -0.1693
     24 C17         9.8401   -0.7435    2.4480 C.3       1 <0>        -0.0043
     25 H1         -2.1412    1.1934    0.0183 H         1 <0>         0.1390
     26 H2          0.0021   -0.0041    0.0020 H         1 <0>         0.1370
     27 H3         -2.1892    3.6518    0.0435 H         1 <0>         0.1453
     28 H4         -0.1147    5.6145   -0.8500 H         1 <0>         0.2233
     29 H5          2.6484    4.1092   -0.8851 H         1 <0>         0.2316
     30 H6          2.4933   -0.0012   -0.0227 H         1 <0>         0.1160
     31 H7          4.2164   -0.3234    1.4829 H         1 <0>         0.1392
     32 H8          6.3675   -1.5149    1.4403 H         1 <0>         0.1494
     33 H9          7.8017    1.1398   -1.5762 H         1 <0>         0.1513
     34 H10         5.6550    2.3398   -1.5576 H         1 <0>         0.1459
     35 H11        11.3754    0.4502   -0.0043 H         1 <0>         0.0944
     36 H12        10.0819    1.6079    0.4143 H         1 <0>         0.0763
     37 H13        10.8692    1.8891    2.5982 H         1 <0>         0.0918
     38 H14        12.4157    1.3157    1.8958 H         1 <0>         0.0945
     39 H15        11.2776   -0.0595    3.9527 H         1 <0>         0.0937
     40 H16        12.0155   -0.9600    2.5855 H         1 <0>         0.0977
     41 H17         9.0658   -0.2404    3.0273 H         1 <0>         0.0772
     42 H18         9.7643   -1.8240    2.5697 H         1 <0>         0.1042
@<TRIPOS>BOND
     1    1    6 ar
     2    1    2 ar
     3    1   25 1
     4    2    3 ar
     5    2   26 1
     6    3    4 ar
     7    3    9 1
     8    4    5 ar
     9    4    8 1
    10    5    6 ar
    11    5    7 1
    12    6   27 1
    13    7   28 1
    14    8   29 1
    15    9   10 2
    16    9   30 1
    17   10   11 1
    18   11   16 ar
    19   11   12 ar
    20   12   13 ar
    21   12   31 1
    22   13   14 ar
    23   13   32 1
    24   14   15 ar
    25   14   17 1
    26   15   16 ar
    27   15   33 1
    28   16   34 1
    29   17   18 2
    30   17   19 2
    31   17   20 1
    32   20   24 1
    33   20   21 1
    34   21   22 1
    35   21   35 1
    36   21   36 1
    37   22   23 1
    38   22   37 1
    39   22   38 1
    40   23   24 1
    41   23   39 1
    42   23   40 1
    43   24   41 1
    44   24   42 1
@<TRIPOS>MOLECULE
ZINC03236367
   41    43     0     0     0
SMALL
USER_CHARGES

@<TRIPOS>ATOM
      1 C1         -8.1193   -2.8372    0.0345 C.3       1 <0>        -0.0622
      2 O1         -8.2879   -1.4182    0.0330 O.3       1 <0>        -0.2135
      3 C2         -7.1575   -0.6622    0.0291 C.ar      1 <0>         0.0612
      4 C3         -7.2488    0.7217    0.0274 C.ar      1 <0>        -0.1235
      5 C4         -6.1006    1.4896    0.0234 C.ar      1 <0>        -0.1229
      6 C5         -4.8564    0.8767    0.0219 C.ar      1 <0>         0.0604
      7 C6         -4.7652   -0.5073    0.0187 C.ar      1 <0>        -0.1797
      8 C7         -5.9133   -1.2752    0.0271 C.ar      1 <0>        -0.1817
      9 O2         -3.7261    1.6326    0.0180 O.3       1 <0>        -0.2244
     10 C8         -2.4790    0.9349    0.0167 C.3       1 <0>         0.0017
     11 C9         -1.3296    1.9447    0.0122 C.3       1 <0>        -0.1891
     12 C10        -0.0144    1.2089    0.0108 C.2       1 <0>         0.3073
     13 O3          0.0019   -0.0039    0.0131 O.2       1 <0>        -0.3594
     14 N1          1.1435    1.8984    0.0013 N.am      1 <0>        -0.3228
     15 C11         2.3647    1.2180    0.0918 C.ar      1 <0>         0.0624
     16 C12         3.4293    1.7916    0.7777 C.ar      1 <0>        -0.1539
     17 C13         4.6335    1.1240    0.8747 C.ar      1 <0>        -0.1081
     18 C14         4.7861   -0.1185    0.2778 C.ar      1 <0>        -0.0139
     19 C15         3.7205   -0.6947   -0.4167 C.ar      1 <0>         0.0179
     20 C16         2.5109   -0.0239   -0.5079 C.ar      1 <0>        -0.1251
     21 N2          4.1696   -1.9227   -0.8969 N.am      1 <0>        -0.2931
     22 H1          3.6488   -2.5525   -1.4194 H         1 <0>         0.2706
     23 C17         5.4494   -2.0867   -0.5128 C.2       1 <0>         0.3902
     24 O4          6.1389   -3.0563   -0.7685 O.2       1 <0>        -0.3829
     25 N3          5.8507   -1.0158    0.1975 N.am      1 <0>        -0.2967
     26 H2          6.7301   -0.8898    0.5870 H         1 <0>         0.2677
     27 H3         -9.0970   -3.3192    0.0377 H         1 <0>         0.1074
     28 H4         -7.5686   -3.1386   -0.8565 H         1 <0>         0.0669
     29 H5         -7.5639   -3.1362    0.9234 H         1 <0>         0.0671
     30 H6         -8.2176    1.1990    0.0290 H         1 <0>         0.1475
     31 H7         -6.1717    2.5673    0.0218 H         1 <0>         0.1456
     32 H8         -3.7963   -0.9846    0.0131 H         1 <0>         0.1415
     33 H9         -5.8423   -2.3528    0.0287 H         1 <0>         0.1371
     34 H10        -2.4147    0.3073   -0.8722 H         1 <0>         0.0911
     35 H11        -2.4109    0.3108    0.9077 H         1 <0>         0.0935
     36 H12        -1.3939    2.5723    0.9011 H         1 <0>         0.1174
     37 H13        -1.3977    2.5688   -0.8788 H         1 <0>         0.1154
     38 H14         1.1314    2.8659   -0.0681 H         1 <0>         0.2365
     39 H15         3.3125    2.7609    1.2395 H         1 <0>         0.1370
     40 H16         5.4572    1.5703    1.4119 H         1 <0>         0.1384
     41 H17         1.6850   -0.4668   -1.0447 H         1 <0>         0.1709
@<TRIPOS>BOND
     1    1    2 1
     2    1   27 1
     3    1   28 1
     4    1   29 1
     5    2    3 1
     6    3    8 ar
     7    3    4 ar
     8    4    5 ar
     9    4   30 1
    10    5    6 ar
    11    5   31 1
    12    6    7 ar
    13    6    9 1
    14    7    8 ar
    15    7   32 1
    16    8   33 1
    17    9   10 1
    18   10   11 1
    19   10   34 1
    20   10   35 1
    21   11   12 1
    22   11   36 1
    23   11   37 1
    24   12   13 2
    25   12   14 am
    26   14   15 1
    27   14   38 1
    28   15   20 ar
    29   15   16 ar
    30   16   17 ar
    31   16   39 1
    32   17   18 ar
    33   17   40 1
    34   18   25 1
    35   18   19 ar
    36   19   20 ar
    37   19   21 1
    38   20   41 1
    39   21   22 1
    40   21   23 am
    41   23   24 2
    42   23   25 am
    43   25   26 1
@<TRIPOS>MOLECULE
ZINC03239152
   40    42     0     0     0
SMALL
USER_CHARGES

@<TRIPOS>ATOM
      1 C1          0.5140   -1.0292   -2.6443 C.3       1 <0>        -0.2439
      2 C2          0.9126    0.4471   -2.5934 C.3       1 <0>        -0.0189
      3 N1         -0.2884    1.2723   -2.4431 N.am      1 <0>        -0.3034
      4 C3         -0.9637    1.7348   -3.5741 C.ar      1 <0>         0.0682
      5 C4         -0.6262    2.9460   -4.1386 C.ar      1 <0>        -0.1116
      6 C5         -1.2930    3.4161   -5.2660 C.ar      1 <0>        -0.1241
      7 C6         -2.2943    2.6952   -5.8421 C.ar      1 <0>        -0.1085
      8 C7         -2.6687    1.4551   -5.2978 C.ar      1 <0>        -0.0313
      9 C8         -1.9938    0.9637   -4.1531 C.ar      1 <0>        -0.0273
     10 C9         -2.3719   -0.2734   -3.6079 C.ar      1 <0>        -0.1159
     11 C10        -3.3740   -0.9883   -4.1897 C.ar      1 <0>        -0.1237
     12 C11        -4.0355   -0.5079   -5.3181 C.ar      1 <0>        -0.1238
     13 C12        -3.6986    0.6891   -5.8712 C.ar      1 <0>        -0.1151
     14 C13        -0.7416    1.5850   -1.2129 C.2       1 <0>         0.3214
     15 O1         -1.7360    2.2682   -1.0884 O.2       1 <0>        -0.3355
     16 C14        -0.0127    1.0858    0.0080 C.3       1 <0>        -0.3003
     17 S1         -0.8618    1.6708    1.5005 S.3       1 <0>         0.3014
     18 C15         0.0987    1.0127    2.8230 C.2       1 <0>        -0.1996
     19 N2         -0.1469    1.1829    4.1567 N.pl3     1 <0>        -0.2462
     20 H1         -0.8801    1.6882    4.5414 H         1 <0>         0.2459
     21 C16         0.8219    0.5173    4.8527 C.2       1 <0>         0.1228
     22 N3          1.6319   -0.0408    3.9871 N.2       1 <0>        -0.1633
     23 N4          1.1712    0.2688    2.7007 N.2       1 <0>        -0.1102
     24 N5          0.9292    0.4444    6.2356 N.pl3     1 <0>        -0.4002
     25 H2         -0.1505   -1.1971   -3.4918 H         1 <0>         0.0951
     26 H3          1.4077   -1.6432   -2.7562 H         1 <0>         0.0874
     27 H4          0.0010   -1.2991   -1.7212 H         1 <0>         0.0793
     28 H5          1.4257    0.7170   -3.5165 H         1 <0>         0.1009
     29 H6          1.5772    0.6150   -1.7459 H         1 <0>         0.0952
     30 H7          0.1645    3.5372   -3.7008 H         1 <0>         0.1366
     31 H8         -1.0114    4.3681   -5.6912 H         1 <0>         0.1322
     32 H9         -2.8000    3.0762   -6.7170 H         1 <0>         0.1336
     33 H10        -1.8678   -0.6579   -2.7336 H         1 <0>         0.1400
     34 H11        -3.6601   -1.9417   -3.7706 H         1 <0>         0.1290
     35 H12        -4.8271   -1.0944   -5.7606 H         1 <0>         0.1286
     36 H13        -4.2195    1.0485   -6.7463 H         1 <0>         0.1331
     37 H14         0.0021   -0.0041    0.0020 H         1 <0>         0.1364
     38 H15         1.0099    1.4631    0.0003 H         1 <0>         0.1357
     39 H16         0.2775    0.8928    6.7969 H         1 <0>         0.2253
     40 H17         1.6559   -0.0550    6.6400 H         1 <0>         0.2548
@<TRIPOS>BOND
     1    1    2 1
     2    1   25 1
     3    1   26 1
     4    1   27 1
     5    2    3 1
     6    2   28 1
     7    2   29 1
     8    3    4 1
     9    3   14 am
    10    4    9 ar
    11    4    5 ar
    12    5    6 ar
    13    5   30 1
    14    6    7 ar
    15    6   31 1
    16    7    8 ar
    17    7   32 1
    18    8   13 ar
    19    8    9 ar
    20    9   10 ar
    21   10   11 ar
    22   10   33 1
    23   11   12 ar
    24   11   34 1
    25   12   13 ar
    26   12   35 1
    27   13   36 1
    28   14   15 2
    29   14   16 1
    30   16   17 1
    31   16   37 1
    32   16   38 1
    33   17   18 1
    34   18   23 2
    35   18   19 1
    36   19   20 1
    37   19   21 1
    38   21   22 2
    39   21   24 1
    40   22   23 1
    41   24   39 1
    42   24   40 1
@<TRIPOS>MOLECULE
ZINC03239959
   36    37     0     0     0
SMALL
USER_CHARGES

@<TRIPOS>ATOM
      1 C1        -12.0812   -1.6498    1.3588 C.3       1 <0>        -0.2411
      2 C2        -10.7734   -0.9262    1.1664 C.2       1 <0>         0.3009
      3 O1         -9.7623   -1.3531    1.6829 O.2       1 <0>        -0.3556
      4 N1        -10.7272    0.1954    0.4204 N.am      1 <0>        -0.3291
      5 C3         -9.5334    0.9214    0.3205 C.ar      1 <0>         0.0461
      6 C4         -9.5685    2.3070    0.2346 C.ar      1 <0>        -0.1455
      7 C5         -8.3921    3.0225    0.1366 C.ar      1 <0>        -0.1096
      8 C6         -7.1735    2.3567    0.1238 C.ar      1 <0>         0.0426
      9 C7         -7.1386    0.9707    0.2039 C.ar      1 <0>        -0.1430
     10 C8         -8.3148    0.2555    0.3077 C.ar      1 <0>        -0.1102
     11 N2         -5.9797    3.0827    0.0244 N.am      1 <0>        -0.3259
     12 C9         -5.8731    4.2887    0.6166 C.2       1 <0>         0.2970
     13 O2         -6.8362    4.7827    1.1640 O.2       1 <0>        -0.3256
     14 C10        -4.5574    5.0233    0.5986 C.3       1 <0>        -0.0235
     15 O3         -4.6999    6.2884    1.2968 O.3       1 <0>        -0.2312
     16 C11        -3.6053    7.0732    1.3717 C.2       1 <0>         0.3970
     17 O4         -2.5603    6.7092    0.8669 O.2       1 <0>        -0.3573
     18 C12        -3.6751    8.3630    2.0607 C.2       1 <0>        -0.3403
     19 C13        -2.6768    9.3065    2.2536 C.2       1 <0>        -0.0875
     20 C14        -3.0148   10.4406    2.9479 C.2       1 <0>        -0.2036
     21 C15        -4.2867   10.5844    3.4054 C.2       1 <0>        -0.3288
     22 S1         -5.0645    9.1276    2.8780 S.3       1 <0>         0.4739
     23 H1        -12.4697   -1.9621    0.3895 H         1 <0>         0.0940
     24 H2        -11.9223   -2.5268    1.9862 H         1 <0>         0.1191
     25 H3        -12.7976   -0.9838    1.8399 H         1 <0>         0.0973
     26 H4        -11.5206    0.4998   -0.0473 H         1 <0>         0.2314
     27 H5        -10.5163    2.8248    0.2448 H         1 <0>         0.1339
     28 H6         -8.4194    4.1001    0.0701 H         1 <0>         0.1672
     29 H7         -6.1911    0.4526    0.1892 H         1 <0>         0.1337
     30 H8         -8.2875   -0.8220    0.3749 H         1 <0>         0.1681
     31 H9         -5.2297    2.7175   -0.4707 H         1 <0>         0.2320
     32 H10        -4.2592    5.2093   -0.4332 H         1 <0>         0.1087
     33 H11        -3.7971    4.4189    1.0932 H         1 <0>         0.1123
     34 H12        -1.6771    9.1548    1.8742 H         1 <0>         0.1632
     35 H13        -2.2790   11.2102    3.1284 H         1 <0>         0.1487
     36 H14        -4.7101   11.4070    3.9626 H         1 <0>         0.1907
@<TRIPOS>BOND
     1    1    2 1
     2    1   23 1
     3    1   24 1
     4    1   25 1
     5    2    3 2
     6    2    4 am
     7    4    5 1
     8    4   26 1
     9    5   10 ar
    10    5    6 ar
    11    6    7 ar
    12    6   27 1
    13    7    8 ar
    14    7   28 1
    15    8    9 ar
    16    8   11 1
    17    9   10 ar
    18    9   29 1
    19   10   30 1
    20   11   12 am
    21   11   31 1
    22   12   13 2
    23   12   14 1
    24   14   15 1
    25   14   32 1
    26   14   33 1
    27   15   16 1
    28   16   17 2
    29   16   18 1
    30   18   22 1
    31   18   19 2
    32   19   20 1
    33   19   34 1
    34   20   21 2
    35   20   35 1
    36   21   22 1
    37   21   36 1
@<TRIPOS>MOLECULE
ZINC03242403
   39    41     0     0     0
SMALL
USER_CHARGES

@<TRIPOS>ATOM
      1 C1          2.2455    5.6963    0.0102 C.3       1 <0>        -0.0509
      2 O1          2.3336    4.2470    0.0021 O.3       1 <0>        -0.2669
      3 C2          1.1726    3.5637    0.0095 C.2       1 <0>         0.3477
      4 O2          0.1157    4.1623    0.0224 O.2       1 <0>        -0.3583
      5 C3          1.1849    2.0865    0.0020 C.ar      1 <0>        -0.1057
      6 C4         -0.0166    1.3752    0.0096 C.ar      1 <0>        -0.0657
      7 C5          0.0021   -0.0041    0.0020 C.ar      1 <0>        -0.1294
      8 C6          1.2078   -0.6827   -0.0131 C.ar      1 <0>        -0.0528
      9 C7          2.4021    0.0160   -0.0203 C.ar      1 <0>        -0.1276
     10 C8          2.3980    1.3954   -0.0124 C.ar      1 <0>        -0.0779
     11 C9          1.2203   -2.1896   -0.0214 C.3       1 <0>        -0.2271
     12 S1          1.2090   -2.7838   -1.7310 S.3       1 <0>         0.2592
     13 C10         1.2262   -4.5232   -1.4506 C.2       1 <0>         0.0082
     14 N1          1.2416   -4.9563   -0.2141 N.2       1 <0>        -0.2492
     15 C11         1.2553   -6.2734    0.0731 C.ar      1 <0>         0.0690
     16 C12         1.2721   -6.7357    1.3926 C.ar      1 <0>        -0.1283
     17 C13         1.2861   -8.0796    1.6381 C.ar      1 <0>        -0.0867
     18 C14         1.2834   -8.9969    0.5950 C.ar      1 <0>        -0.1581
     19 C15         1.2671   -8.5757   -0.7060 C.ar      1 <0>        -0.0473
     20 C16         1.2530   -7.2100   -0.9856 C.ar      1 <0>        -0.1899
     21 C17         1.2357   -6.6998   -2.3632 C.2       1 <0>         0.3357
     22 O3          1.2325   -7.4564   -3.3169 O.2       1 <0>        -0.3544
     23 N2          1.2173   -5.3571   -2.5321 N.am      1 <0>        -0.1823
     24 N3          1.1956   -4.8323   -3.7931 N.3       1 <0>        -0.2315
     25 H1          1.7023    6.0323   -0.8730 H         1 <0>         0.0838
     26 H2          1.7190    6.0233    0.9068 H         1 <0>         0.0835
     27 H3          3.2492    6.1213    0.0030 H         1 <0>         0.1042
     28 H4         -0.9585    1.9037    0.0169 H         1 <0>         0.1589
     29 H5         -0.9265   -0.5555    0.0083 H         1 <0>         0.1423
     30 H6          3.3397   -0.5199   -0.0318 H         1 <0>         0.1431
     31 H7          3.3309    1.9395   -0.0173 H         1 <0>         0.1527
     32 H8          2.1181   -2.5483    0.4820 H         1 <0>         0.1321
     33 H9          0.3383   -2.5631    0.4989 H         1 <0>         0.1285
     34 H10         1.2737   -6.0339    2.2135 H         1 <0>         0.1470
     35 H11         1.2991   -8.4340    2.6582 H         1 <0>         0.1342
     36 H12         1.2940  -10.0545    0.8139 H         1 <0>         0.1361
     37 H13         1.2655   -9.2958   -1.5109 H         1 <0>         0.1537
     38 H14         1.1914   -5.5630   -4.4889 H         1 <0>         0.2052
     39 H15         0.4077   -4.2136   -3.9137 H         1 <0>         0.1649
@<TRIPOS>BOND
     1    1    2 1
     2    1   25 1
     3    1   26 1
     4    1   27 1
     5    2    3 1
     6    3    4 2
     7    3    5 1
     8    5   10 ar
     9    5    6 ar
    10    6    7 ar
    11    6   28 1
    12    7    8 ar
    13    7   29 1
    14    8    9 ar
    15    8   11 1
    16    9   10 ar
    17    9   30 1
    18   10   31 1
    19   11   12 1
    20   11   32 1
    21   11   33 1
    22   12   13 1
    23   13   23 1
    24   13   14 2
    25   14   15 1
    26   15   20 ar
    27   15   16 ar
    28   16   17 ar
    29   16   34 1
    30   17   18 ar
    31   17   35 1
    32   18   19 ar
    33   18   36 1
    34   19   20 ar
    35   19   37 1
    36   20   21 1
    37   21   22 2
    38   21   23 am
    39   23   24 1
    40   24   38 1
    41   24   39 1
@<TRIPOS>MOLECULE
ZINC03247320
   44    46     0     0     0
SMALL
USER_CHARGES

@<TRIPOS>ATOM
      1 C1        -10.8653    2.2294    0.6083 C.3       1 <0>        -0.0799
      2 N1         -9.7652    3.1149    0.2188 N.am      1 <0>        -0.2724
      3 C2         -8.5651    2.5722   -0.1425 C.2       1 <0>         0.3223
      4 C3         -7.5137    3.4303   -0.5090 C.2       1 <0>        -0.4464
      5 C4         -7.7710    4.8761   -0.4943 C.2       1 <0>         0.3701
      6 O1         -6.8988    5.6656   -0.8067 O.2       1 <0>        -0.3503
      7 N2         -8.9940    5.3111   -0.1270 N.am      1 <0>        -0.2993
      8 C5         -9.9586    4.4431    0.2187 C.2       1 <0>         0.4133
      9 O2        -11.0467    4.8762    0.5439 O.2       1 <0>        -0.3725
     10 C6         -9.2736    6.7490   -0.1054 C.3       1 <0>        -0.0596
     11 C7         -6.2533    2.9186   -0.8846 C.2       1 <0>         0.3206
     12 O3         -6.0939    1.7199   -0.9983 O.2       1 <0>        -0.3490
     13 C8         -5.1052    3.8595   -1.1446 C.3       1 <0>        -0.0197
     14 O4         -3.9268    3.0951   -1.5125 O.3       1 <0>        -0.2550
     15 C9         -2.8043    3.7917   -1.7797 C.2       1 <0>         0.3578
     16 O5         -2.8103    5.0047   -1.7072 O.2       1 <0>        -0.3663
     17 C10        -1.5702    3.0826   -2.1596 C.ar      1 <0>        -0.1098
     18 C11        -1.5154    1.6943   -2.1411 C.ar      1 <0>        -0.0594
     19 C12        -0.3496    1.0291   -2.4946 C.ar      1 <0>        -0.1533
     20 C13         0.7711    1.6991   -2.8797 C.ar      1 <0>        -0.0800
     21 C14         0.7858    3.1031   -2.9273 C.ar      1 <0>        -0.0510
     22 C15        -0.3798    3.8242   -2.5700 C.ar      1 <0>         0.0065
     23 C16        -0.3695    5.2234   -2.6171 C.ar      1 <0>        -0.1207
     24 C17         0.7625    5.8760   -3.0057 C.ar      1 <0>        -0.1227
     25 C18         1.9106    5.1699   -3.3573 C.ar      1 <0>        -0.1262
     26 C19         1.9350    3.8091   -3.3233 C.ar      1 <0>        -0.1189
     27 N3         -8.3883    1.2232   -0.1423 N.pl3     1 <0>        -0.3631
     28 H1        -11.7418    2.8271    0.8583 H         1 <0>         0.1440
     29 H2        -11.1049    1.5619   -0.2194 H         1 <0>         0.0840
     30 H3        -10.5678    1.6402    1.4758 H         1 <0>         0.0908
     31 H4         -9.6531    7.0600   -1.0787 H         1 <0>         0.0895
     32 H5        -10.0191    6.9627    0.6605 H         1 <0>         0.1084
     33 H6         -8.3565    7.2941    0.1181 H         1 <0>         0.1147
     34 H7         -4.9144    4.3890   -0.3180 H         1 <0>         0.1138
     35 H8         -5.3673    4.5367   -1.9575 H         1 <0>         0.1352
     36 H9         -2.3862    1.1281   -1.8451 H         1 <0>         0.1528
     37 H10        -0.3325   -0.0504   -2.4675 H         1 <0>         0.1316
     38 H11         1.6578    1.1458   -3.1516 H         1 <0>         0.1318
     39 H12        -1.2530    5.7825   -2.3466 H         1 <0>         0.1864
     40 H13         0.7691    6.9553   -3.0419 H         1 <0>         0.1315
     41 H14         2.7947    5.7102   -3.6619 H         1 <0>         0.1271
     42 H15         2.8322    3.2750   -3.5994 H         1 <0>         0.1310
     43 H16        -7.4956    0.8511   -0.0683 H         1 <0>         0.2861
     44 H17        -9.1550    0.6336   -0.2161 H         1 <0>         0.2262
@<TRIPOS>BOND
     1    1    2 1
     2    1   28 1
     3    1   29 1
     4    1   30 1
     5    2    8 am
     6    2    3 1
     7    3    4 2
     8    3   27 1
     9    4    5 1
    10    4   11 1
    11    5    6 2
    12    5    7 am
    13    7    8 am
    14    7   10 1
    15    8    9 2
    16   10   31 1
    17   10   32 1
    18   10   33 1
    19   11   12 2
    20   11   13 1
    21   13   14 1
    22   13   34 1
    23   13   35 1
    24   14   15 1
    25   15   16 2
    26   15   17 1
    27   17   22 ar
    28   17   18 ar
    29   18   19 ar
    30   18   36 1
    31   19   20 ar
    32   19   37 1
    33   20   21 ar
    34   20   38 1
    35   21   26 ar
    36   21   22 ar
    37   22   23 ar
    38   23   24 ar
    39   23   39 1
    40   24   25 ar
    41   24   40 1
    42   25   26 ar
    43   25   41 1
    44   26   42 1
    45   27   43 1
    46   27   44 1
@<TRIPOS>MOLECULE
ZINC03250347
   41    43     0     0     0
SMALL
USER_CHARGES

@<TRIPOS>ATOM
      1 C1          0.9922    2.5503    0.4860 C.3       1 <0>        -0.0639
      2 O1         -0.0121    2.5222    1.5022 O.3       1 <0>        -0.2148
      3 C2          0.1836    1.6659    2.5401 C.ar      1 <0>         0.0980
      4 C3          1.3143    0.8661    2.5768 C.ar      1 <0>        -0.2123
      5 C4          1.5147    0.0001    3.6356 C.ar      1 <0>        -0.0507
      6 C5          0.5833   -0.0793    4.6546 C.ar      1 <0>        -0.1304
      7 C6         -0.5500    0.7109    4.6225 C.ar      1 <0>        -0.0529
      8 C7         -0.7551    1.5864    3.5662 C.ar      1 <0>         0.0353
      9 N1         -1.9037    2.3883    3.5313 N.am      1 <0>        -0.3124
     10 C8         -2.5405    2.7037    4.6765 C.2       1 <0>         0.3058
     11 O2         -2.0651    2.3787    5.7441 O.2       1 <0>        -0.3375
     12 C9         -3.8431    3.4600    4.6307 C.3       1 <0>        -0.1811
     13 C10        -4.3510    3.6877    6.0559 C.3       1 <0>        -0.2231
     14 H1         -3.5836    4.1935    6.6418 H         1 <0>         0.1825
     15 C11        -5.6017    4.5270    6.0197 C.2       1 <0>         0.3066
     16 O3         -5.5038    5.7176    6.2302 O.2       1 <0>        -0.3412
     17 N2         -6.8070    4.0265    5.7688 N.am      1 <0>        -0.3023
     18 C12        -7.1337    2.6819    5.6210 C.ar      1 <0>         0.0629
     19 C13        -8.3404    2.3388    5.0187 C.ar      1 <0>        -0.1622
     20 C14        -8.6782    1.0118    4.8424 C.ar      1 <0>        -0.0974
     21 C15        -7.8235    0.0089    5.2622 C.ar      1 <0>        -0.1439
     22 C16        -6.6231    0.3349    5.8664 C.ar      1 <0>        -0.0713
     23 C17        -6.2805    1.6646    6.0475 C.ar      1 <0>        -0.2543
     24 S1         -4.7525    2.0887    6.8247 S.3       1 <0>         0.2296
     25 N3          0.8004   -1.0134    5.7821 N.pl3     1 <0>         0.5539
     26 O4         -0.0192   -1.0848    6.6803 O.2       1 <0>        -0.3464
     27 O5          1.7988   -1.7105    5.8119 O.3       1 <0>        -0.3645
     28 H2          1.0822    1.5613    0.0367 H         1 <0>         0.0737
     29 H3          1.9469    2.8374    0.9266 H         1 <0>         0.0768
     30 H4          0.7135    3.2735   -0.2804 H         1 <0>         0.1159
     31 H5          2.0415    0.9224    1.7803 H         1 <0>         0.1526
     32 H6          2.3988   -0.6196    3.6646 H         1 <0>         0.1661
     33 H7         -1.2757    0.6471    5.4199 H         1 <0>         0.2111
     34 H8         -2.2405    2.7165    2.6829 H         1 <0>         0.2464
     35 H9         -3.6877    4.4220    4.1424 H         1 <0>         0.1212
     36 H10        -4.5788    2.8828    4.0707 H         1 <0>         0.1165
     37 H11        -7.5330    4.6635    5.6792 H         1 <0>         0.2461
     38 H12        -9.0156    3.1141    4.6879 H         1 <0>         0.1356
     39 H13        -9.6163    0.7551    4.3729 H         1 <0>         0.1362
     40 H14        -8.0929   -1.0270    5.1182 H         1 <0>         0.1389
     41 H15        -5.9538   -0.4460    6.1960 H         1 <0>         0.1507
@<TRIPOS>BOND
     1    1    2 1
     2    1   28 1
     3    1   29 1
     4    1   30 1
     5    2    3 1
     6    3    8 ar
     7    3    4 ar
     8    4    5 ar
     9    4   31 1
    10    5    6 ar
    11    5   32 1
    12    6    7 ar
    13    6   25 1
    14    7    8 ar
    15    7   33 1
    16    8    9 1
    17    9   10 am
    18    9   34 1
    19   10   11 2
    20   10   12 1
    21   12   13 1
    22   12   35 1
    23   12   36 1
    24   13   14 1
    25   13   24 1
    26   13   15 1
    27   15   16 2
    28   15   17 am
    29   17   18 1
    30   17   37 1
    31   18   23 ar
    32   18   19 ar
    33   19   20 ar
    34   19   38 1
    35   20   21 ar
    36   20   39 1
    37   21   22 ar
    38   21   40 1
    39   22   23 ar
    40   22   41 1
    41   23   24 1
    42   25   26 2
    43   25   27 1
@<TRIPOS>MOLECULE
ZINC03250349
   41    43     0     0     0
SMALL
USER_CHARGES

@<TRIPOS>ATOM
      1 C1         -0.9792   -4.3799    1.7668 C.3       1 <0>        -0.0640
      2 O1          0.2065   -3.8570    1.1647 O.3       1 <0>        -0.2147
      3 C2          0.1122   -2.6354    0.5749 C.ar      1 <0>         0.0979
      4 C3         -1.0947   -1.9550    0.5760 C.ar      1 <0>        -0.2119
      5 C4         -1.1876   -0.7107   -0.0191 C.ar      1 <0>        -0.0507
      6 C5         -0.0807   -0.1460   -0.6259 C.ar      1 <0>        -0.1297
      7 C6          1.1268   -0.8182   -0.6313 C.ar      1 <0>        -0.0526
      8 C7          1.2289   -2.0649   -0.0315 C.ar      1 <0>         0.0364
      9 N1          2.4521   -2.7485   -0.0361 N.am      1 <0>        -0.3123
     10 C8          3.6070   -2.0627   -0.1461 C.2       1 <0>         0.3060
     11 O2          3.5951   -0.8498   -0.1400 O.2       1 <0>        -0.3376
     12 C9          4.9133   -2.8026   -0.2766 C.3       1 <0>        -0.1811
     13 C10         6.0609   -1.7965   -0.3845 C.3       1 <0>        -0.2225
     14 H1          5.8650   -1.1028   -1.2021 H         1 <0>         0.1831
     15 C11         7.3540   -2.5271   -0.6379 C.2       1 <0>         0.3065
     16 O3          7.7622   -2.5995   -1.7779 O.2       1 <0>        -0.3401
     17 N2          8.0688   -3.0963    0.3269 N.am      1 <0>        -0.3022
     18 C12         7.8251   -3.0260    1.6952 C.ar      1 <0>         0.0633
     19 C13         8.4565   -3.9256    2.5474 C.ar      1 <0>        -0.1616
     20 C14         8.2248   -3.8778    3.9077 C.ar      1 <0>        -0.0975
     21 C15         7.3699   -2.9299    4.4401 C.ar      1 <0>        -0.1443
     22 C16         6.7490   -2.0174    3.6071 C.ar      1 <0>        -0.0720
     23 C17         6.9814   -2.0586    2.2423 C.ar      1 <0>        -0.2538
     24 S1          6.2173   -0.8760    1.1767 S.3       1 <0>         0.2289
     25 N3         -0.1880    1.1844   -1.2659 N.pl3     1 <0>         0.5540
     26 O4          0.7873    1.6854   -1.7964 O.2       1 <0>        -0.3468
     27 O5         -1.2527    1.7759   -1.2664 O.3       1 <0>        -0.3638
     28 H2         -0.7663   -5.3574    2.1996 H         1 <0>         0.1157
     29 H3         -1.3185   -3.7019    2.5500 H         1 <0>         0.0765
     30 H4         -1.7575   -4.4794    1.0101 H         1 <0>         0.0741
     31 H5         -1.9621   -2.3951    1.0454 H         1 <0>         0.1525
     32 H6         -2.1281   -0.1798   -0.0134 H         1 <0>         0.1662
     33 H7          1.9907   -0.3728   -1.1020 H         1 <0>         0.2083
     34 H8          2.4675   -3.7154    0.0399 H         1 <0>         0.2464
     35 H9          5.0634   -3.4322    0.6005 H         1 <0>         0.1160
     36 H10         4.8905   -3.4251   -1.1711 H         1 <0>         0.1219
     37 H11         8.8404   -3.6141    0.0487 H         1 <0>         0.2460
     38 H12         9.1312   -4.6656    2.1430 H         1 <0>         0.1357
     39 H13         8.7148   -4.5852    4.5604 H         1 <0>         0.1362
     40 H14         7.1879   -2.9023    5.5043 H         1 <0>         0.1382
     41 H15         6.0838   -1.2735    4.0201 H         1 <0>         0.1492
@<TRIPOS>BOND
     1    1    2 1
     2    1   28 1
     3    1   29 1
     4    1   30 1
     5    2    3 1
     6    3    8 ar
     7    3    4 ar
     8    4    5 ar
     9    4   31 1
    10    5    6 ar
    11    5   32 1
    12    6    7 ar
    13    6   25 1
    14    7    8 ar
    15    7   33 1
    16    8    9 1
    17    9   10 am
    18    9   34 1
    19   10   11 2
    20   10   12 1
    21   12   13 1
    22   12   35 1
    23   12   36 1
    24   13   14 1
    25   13   24 1
    26   13   15 1
    27   15   16 2
    28   15   17 am
    29   17   18 1
    30   17   37 1
    31   18   23 ar
    32   18   19 ar
    33   19   20 ar
    34   19   38 1
    35   20   21 ar
    36   20   39 1
    37   21   22 ar
    38   21   40 1
    39   22   23 ar
    40   22   41 1
    41   23   24 1
    42   25   26 2
    43   25   27 1
@<TRIPOS>MOLECULE
ZINC03250759
   41    43     0     0     0
SMALL
USER_CHARGES

@<TRIPOS>ATOM
      1 C1          4.3353    7.6237   -0.3380 C.3       1 <0>        -0.1667
      2 C2          4.2229    6.1213   -0.3066 C.2       1 <0>         0.1350
      3 C3          5.3121    5.3770   -0.3480 C.2       1 <0>        -0.3652
      4 C4          5.9534    4.0133   -0.3501 C.3       1 <0>        -0.1706
      5 C5          6.8139    5.2764   -0.4208 C.3       1 <0>        -0.1244
      6 N1          2.9728    5.5197   -0.2342 N.pl3     1 <0>        -0.2612
      7 N2          2.8683    4.1229   -0.2051 N.am      1 <0>        -0.2645
      8 C6          1.6555    3.5392   -0.1348 C.2       1 <0>         0.3402
      9 O1          0.6521    4.2249   -0.0967 O.2       1 <0>        -0.3760
     10 C7          1.5454    2.0684   -0.1041 C.ar      1 <0>        -0.1142
     11 C8          0.2882    1.4615   -0.0312 C.ar      1 <0>        -0.0591
     12 C9          0.1888    0.0893   -0.0032 C.ar      1 <0>        -0.1193
     13 C10         1.3386   -0.6944   -0.0469 C.ar      1 <0>         0.0572
     14 C11         2.5921   -0.0930   -0.1190 C.ar      1 <0>        -0.1370
     15 C12         2.6981    1.2787   -0.1473 C.ar      1 <0>        -0.1061
     16 N3          1.2348   -2.0807   -0.0179 N.pl3     1 <0>        -0.8261
     17 S1          0.7379   -2.9022   -1.3672 S.o2      1 <0>         2.7899
     18 O2          0.7786   -4.2842   -1.0392 O.2       1 <0>        -0.9050
     19 O3         -0.4469   -2.2611   -1.8196 O.2       1 <0>        -0.8970
     20 C13         1.9571   -2.6440   -2.6128 C.2       1 <0>        -0.9592
     21 C14         3.0178   -3.4207   -2.9430 C.2       1 <0>        -0.0334
     22 C15         3.8518   -3.0157   -3.9682 C.2       1 <0>        -0.2112
     23 C16         3.5844   -1.8538   -4.6130 C.2       1 <0>        -0.2787
     24 S2          2.1115   -1.2957   -3.7726 S.3       1 <0>         0.4586
     25 H1          4.4134    8.0036    0.6807 H         1 <0>         0.0954
     26 H2          5.2233    7.9099   -0.9016 H         1 <0>         0.1032
     27 H3          3.4505    8.0444   -0.8158 H         1 <0>         0.0842
     28 H4          5.9578    3.4567    0.5871 H         1 <0>         0.1037
     29 H5          5.8577    3.4126   -1.2546 H         1 <0>         0.1029
     30 H6          7.2895    5.5144   -1.3723 H         1 <0>         0.1077
     31 H7          7.3811    5.5473    0.4697 H         1 <0>         0.1082
     32 H8          2.1724    6.0667   -0.2038 H         1 <0>         0.2744
     33 H9          3.6688    3.5759   -0.2354 H         1 <0>         0.2605
     34 H10        -0.6043    2.0689   -0.0015 H         1 <0>         0.1660
     35 H11        -0.7822   -0.3801    0.0531 H         1 <0>         0.1617
     36 H12         3.4823   -0.7036   -0.1524 H         1 <0>         0.1405
     37 H13         3.6709    1.7447   -0.2026 H         1 <0>         0.1303
     38 H14         1.4536   -2.5666    0.7926 H         1 <0>         0.2569
     39 H15         3.2082   -4.3424   -2.4133 H         1 <0>         0.1567
     40 H16         4.7036   -3.6162   -4.2514 H         1 <0>         0.1497
     41 H17         4.1209   -1.3885   -5.4267 H         1 <0>         0.1921
@<TRIPOS>BOND
     1    1    2 1
     2    1   25 1
     3    1   26 1
     4    1   27 1
     5    2    3 2
     6    2    6 1
     7    3    5 1
     8    3    4 1
     9    4    5 1
    10    4   28 1
    11    4   29 1
    12    5   30 1
    13    5   31 1
    14    6    7 1
    15    6   32 1
    16    7    8 am
    17    7   33 1
    18    8    9 2
    19    8   10 1
    20   10   15 ar
    21   10   11 ar
    22   11   12 ar
    23   11   34 1
    24   12   13 ar
    25   12   35 1
    26   13   14 ar
    27   13   16 1
    28   14   15 ar
    29   14   36 1
    30   15   37 1
    31   16   17 1
    32   16   38 1
    33   17   18 2
    34   17   19 2
    35   17   20 1
    36   20   24 1
    37   20   21 2
    38   21   22 1
    39   21   39 1
    40   22   23 2
    41   22   40 1
    42   23   24 1
    43   23   41 1
@<TRIPOS>MOLECULE
ZINC03251052
   43    45     0     0     0
SMALL
USER_CHARGES

@<TRIPOS>ATOM
      1 C1         -0.0127    1.0858    0.0080 C.3       1 <0>        -0.2353
      2 C2         -0.7288    1.5792    1.2668 C.3       1 <0>        -0.0154
      3 N1         -0.0203    1.0939    2.4537 N.pl3     1 <0>        -0.1773
      4 C3          0.9901    1.7312    3.1057 C.2       1 <0>         0.0249
      5 N2          1.3893    1.0188    4.1180 N.2       1 <0>        -0.1655
      6 C4          0.6608   -0.1261    4.1842 C.ar      1 <0>        -0.0578
      7 C5         -0.2582   -0.0892    3.1190 C.ar      1 <0>        -0.0299
      8 C6         -1.1531   -1.1367    2.9322 C.ar      1 <0>        -0.1322
      9 C7         -1.1463   -2.2039    3.7826 C.ar      1 <0>        -0.0998
     10 C8         -0.2405   -2.2555    4.8503 C.ar      1 <0>        -0.1547
     11 C9          0.6676   -1.2194    5.0484 C.ar      1 <0>         0.0053
     12 C10        -0.2437   -3.4160    5.7630 C.2       1 <0>         0.3687
     13 O1          0.5418   -3.4625    6.6903 O.2       1 <0>        -0.3194
     14 N3         -1.1172   -4.4238    5.5684 N.am      1 <0>        -0.3328
     15 N4         -1.1203   -5.5251    6.4345 N.2       1 <0>         0.0361
     16 C11        -1.9616   -6.4958    6.2471 C.2       1 <0>        -0.1251
     17 C12        -1.9648   -7.6543    7.1582 C.ar      1 <0>        -0.0614
     18 C13        -2.8692   -8.7014    6.9596 C.ar      1 <0>        -0.1087
     19 C14        -2.8688   -9.7835    7.8137 C.ar      1 <0>        -0.1328
     20 C15        -1.9753   -9.8401    8.8697 C.ar      1 <0>        -0.1329
     21 C16        -1.0732   -8.8090    9.0791 C.ar      1 <0>         0.0400
     22 C17        -1.0583   -7.7140    8.2232 C.ar      1 <0>         0.0875
     23 O2         -0.1712   -6.7038    8.4223 O.3       1 <0>        -0.2603
     24 O3         -0.1988   -8.8712   10.1189 O.3       1 <0>        -0.2844
     25 C18         1.5634    3.0681    2.7116 C.3       1 <0>        -0.1413
     26 H1          0.0021   -0.0041    0.0020 H         1 <0>         0.0916
     27 H2          1.0099    1.4631    0.0003 H         1 <0>         0.0875
     28 H3         -0.5399    1.4469   -0.8751 H         1 <0>         0.0873
     29 H4         -0.7436    2.6691    1.2728 H         1 <0>         0.1010
     30 H5         -1.7514    1.2020    1.2746 H         1 <0>         0.1026
     31 H6         -1.8550   -1.1058    2.1120 H         1 <0>         0.1271
     32 H7         -1.8442   -3.0142    3.6318 H         1 <0>         0.1233
     33 H8          1.3652   -1.2575    5.8721 H         1 <0>         0.1718
     34 H9         -1.7437   -4.3867    4.8288 H         1 <0>         0.2063
     35 H10        -2.6591   -6.4545    5.4236 H         1 <0>         0.1145
     36 H11        -3.5679   -8.6629    6.1370 H         1 <0>         0.1326
     37 H12        -3.5686  -10.5913    7.6580 H         1 <0>         0.1354
     38 H13        -1.9815  -10.6917    9.5339 H         1 <0>         0.1427
     39 H14        -0.4987   -6.0011    9.0002 H         1 <0>         0.2469
     40 H15         0.6414   -9.2978    9.9013 H         1 <0>         0.2341
     41 H16         1.0155    3.8621    3.2188 H         1 <0>         0.0995
     42 H17         2.6142    3.1114    2.9981 H         1 <0>         0.1169
     43 H18         1.4753    3.1975    1.6329 H         1 <0>         0.0834
@<TRIPOS>BOND
     1    1    2 1
     2    1   26 1
     3    1   27 1
     4    1   28 1
     5    2    3 1
     6    2   29 1
     7    2   30 1
     8    3    7 1
     9    3    4 1
    10    4    5 2
    11    4   25 1
    12    5    6 1
    13    6   11 ar
    14    6    7 ar
    15    7    8 ar
    16    8    9 ar
    17    8   31 1
    18    9   10 ar
    19    9   32 1
    20   10   11 ar
    21   10   12 1
    22   11   33 1
    23   12   13 2
    24   12   14 am
    25   14   15 1
    26   14   34 1
    27   15   16 2
    28   16   17 1
    29   16   35 1
    30   17   22 ar
    31   17   18 ar
    32   18   19 ar
    33   18   36 1
    34   19   20 ar
    35   19   37 1
    36   20   21 ar
    37   20   38 1
    38   21   22 ar
    39   21   24 1
    40   22   23 1
    41   23   39 1
    42   24   40 1
    43   25   41 1
    44   25   42 1
    45   25   43 1
@<TRIPOS>MOLECULE
ZINC03254008
   39    42     0     0     0
SMALL
USER_CHARGES

@<TRIPOS>ATOM
      1 C1          7.1688    5.5260   -0.3293 C.3       1 <0>        -0.0612
      2 O1          5.8454    4.9982   -0.2189 O.3       1 <0>        -0.2194
      3 C2          4.8226    5.8949   -0.1983 C.ar      1 <0>         0.0500
      4 C3          5.0878    7.2482   -0.2826 C.ar      1 <0>        -0.1575
      5 C4          4.0372    8.1609   -0.2615 C.ar      1 <0>        -0.0843
      6 C5          3.9605    9.6328   -0.3306 C.ar      1 <0>        -0.1123
      7 C6          4.9079   10.6451   -0.4407 C.ar      1 <0>        -0.0723
      8 C7          4.5001   11.9619   -0.4806 C.ar      1 <0>        -0.1537
      9 C8          3.1518   12.2747   -0.4113 C.ar      1 <0>        -0.0967
     10 C9          2.2043   11.2787   -0.3015 C.ar      1 <0>        -0.1270
     11 C10         2.5960    9.9460   -0.2598 C.ar      1 <0>         0.0623
     12 O2          1.8961    8.7946   -0.1575 O.3       1 <0>        -0.0854
     13 C11         2.7120    7.7162   -0.1551 C.ar      1 <0>         0.0406
     14 C12         2.4566    6.3533   -0.0766 C.ar      1 <0>        -0.0963
     15 C13         3.5044    5.4483   -0.0923 C.ar      1 <0>         0.0636
     16 N1          3.2396    4.0757   -0.0070 N.am      1 <0>        -0.3067
     17 C14         2.1334    3.5657   -0.5840 C.2       1 <0>         0.3165
     18 O3          1.3259    4.3050   -1.1060 O.2       1 <0>        -0.3469
     19 C15         1.9000    2.0769   -0.5805 C.3       1 <0>        -0.3057
     20 S1          0.3420    1.7086   -1.4249 S.3       1 <0>         0.3181
     21 C16         0.3215   -0.0471   -1.2773 C.2       1 <0>        -0.2310
     22 N2         -0.6451   -0.8900   -1.7455 N.pl3     1 <0>        -0.1934
     23 H1         -1.4538   -0.6463   -2.2226 H         1 <0>         0.2586
     24 C17        -0.2366   -2.1492   -1.4021 C.2       1 <0>        -0.1314
     25 N3          0.8986   -2.0308   -0.7737 N.2       1 <0>        -0.0817
     26 N4          1.2358   -0.7927   -0.7012 N.2       1 <0>        -0.1127
     27 H2          7.8876    4.7066   -0.3344 H         1 <0>         0.1100
     28 H3          7.2577    6.0931   -1.2559 H         1 <0>         0.0718
     29 H4          7.3705    6.1810    0.5183 H         1 <0>         0.0691
     30 H5          6.1067    7.5966   -0.3644 H         1 <0>         0.1432
     31 H6          5.9586   10.4010   -0.4947 H         1 <0>         0.1318
     32 H7          5.2328   12.7508   -0.5657 H         1 <0>         0.1344
     33 H8          2.8402   13.3083   -0.4432 H         1 <0>         0.1376
     34 H9          1.1565   11.5348   -0.2476 H         1 <0>         0.1424
     35 H10         1.4394    5.9990    0.0012 H         1 <0>         0.1824
     36 H11         3.8522    3.4921    0.4673 H         1 <0>         0.2478
     37 H12         1.8492    1.7195    0.4480 H         1 <0>         0.1394
     38 H13         2.7202    1.5793   -1.0980 H         1 <0>         0.1433
     39 H14        -0.7584   -3.0710   -1.6128 H         1 <0>         0.2125
@<TRIPOS>BOND
     1    1    2 1
     2    1   27 1
     3    1   28 1
     4    1   29 1
     5    2    3 1
     6    3   15 ar
     7    3    4 ar
     8    4    5 ar
     9    4   30 1
    10    5   13 ar
    11    5    6 1
    12    6   11 ar
    13    6    7 ar
    14    7    8 ar
    15    7   31 1
    16    8    9 ar
    17    8   32 1
    18    9   10 ar
    19    9   33 1
    20   10   11 ar
    21   10   34 1
    22   11   12 1
    23   12   13 1
    24   13   14 ar
    25   14   15 ar
    26   14   35 1
    27   15   16 1
    28   16   17 am
    29   16   36 1
    30   17   18 2
    31   17   19 1
    32   19   20 1
    33   19   37 1
    34   19   38 1
    35   20   21 1
    36   21   26 2
    37   21   22 1
    38   22   23 1
    39   22   24 1
    40   24   25 2
    41   24   39 1
    42   25   26 1
@<TRIPOS>MOLECULE
ZINC03256326
   39    40     0     0     0
SMALL
USER_CHARGES

@<TRIPOS>ATOM
      1 C1         -1.1792    2.2542    1.1615 C.3       1 <0>        -0.1331
      2 C2          0.0344    1.3913    0.9300 C.2       1 <0>        -0.0566
      3 C3          1.2900    1.8393    0.7797 C.2       1 <0>        -0.1736
      4 C4          2.1233    0.6452    0.5741 C.2       1 <0>        -0.2196
      5 C5          1.2644   -0.4146    0.6235 C.2       1 <0>         0.0477
      6 O1          0.0305    0.0524    0.8356 O.3       1 <0>        -0.0542
      7 C6          1.6432   -1.8646    0.4650 C.3       1 <0>        -0.1385
      8 C7          3.5793    0.6018    0.3603 C.2       1 <0>         0.3892
      9 O2          4.1390   -0.4656    0.2039 O.2       1 <0>        -0.3811
     10 O3          4.2915    1.7457    0.3381 O.3       1 <0>        -0.2280
     11 C8          5.7225    1.6272    0.1226 C.3       1 <0>        -0.0251
     12 C9          6.3468    2.9988    0.1292 C.2       1 <0>         0.2970
     13 O4          5.6539    3.9796    0.2988 O.2       1 <0>        -0.3197
     14 N1          7.6751    3.1355   -0.0534 N.am      1 <0>        -0.3287
     15 C10         8.2374    4.4073   -0.1573 C.ar      1 <0>         0.0891
     16 C11         7.5195    5.4366   -0.7582 C.ar      1 <0>        -0.1392
     17 C12         8.0698    6.6946   -0.8581 C.ar      1 <0>        -0.0857
     18 C13         9.3551    6.9345   -0.3646 C.ar      1 <0>        -0.1486
     19 C14        10.0754    5.8971    0.2336 C.ar      1 <0>        -0.0462
     20 C15         9.5172    4.6428    0.3350 C.ar      1 <0>        -0.1742
     21 C16         9.9502    8.2807   -0.4746 C.2       1 <0>         0.3518
     22 O5         11.0684    8.4880   -0.0445 O.2       1 <0>        -0.3718
     23 N2          9.2541    9.2801   -1.0518 N.am      1 <0>        -0.4285
     24 H1         -2.0641    1.6228    1.2413 H         1 <0>         0.0931
     25 H2         -1.0521    2.8199    2.0844 H         1 <0>         0.0986
     26 H3         -1.2992    2.9440    0.3261 H         1 <0>         0.0980
     27 H4          1.6210    2.8670    0.8040 H         1 <0>         0.1761
     28 H5          0.7508   -2.4847    0.5503 H         1 <0>         0.0897
     29 H6          2.0988   -2.0162   -0.5136 H         1 <0>         0.1149
     30 H7          2.3540   -2.1417    1.2435 H         1 <0>         0.1152
     31 H8          6.1611    1.0246    0.9180 H         1 <0>         0.1099
     32 H9          5.9067    1.1488   -0.8393 H         1 <0>         0.1105
     33 H10         8.2400    2.3492   -0.1125 H         1 <0>         0.2355
     34 H11         6.5279    5.2495   -1.1430 H         1 <0>         0.1629
     35 H12         7.5104    7.4941   -1.3209 H         1 <0>         0.1293
     36 H13        11.0688    6.0793    0.6162 H         1 <0>         0.1603
     37 H14        10.0733    3.8407    0.7975 H         1 <0>         0.1362
     38 H15         8.3620    9.1146   -1.3950 H         1 <0>         0.2162
     39 H16         9.6452   10.1648   -1.1241 H         1 <0>         0.2312
@<TRIPOS>BOND
     1    1    2 1
     2    1   24 1
     3    1   25 1
     4    1   26 1
     5    2    6 1
     6    2    3 2
     7    3    4 1
     8    3   27 1
     9    4    5 2
    10    4    8 1
    11    5    6 1
    12    5    7 1
    13    7   28 1
    14    7   29 1
    15    7   30 1
    16    8    9 2
    17    8   10 1
    18   10   11 1
    19   11   12 1
    20   11   31 1
    21   11   32 1
    22   12   13 2
    23   12   14 am
    24   14   15 1
    25   14   33 1
    26   15   20 ar
    27   15   16 ar
    28   16   17 ar
    29   16   34 1
    30   17   18 ar
    31   17   35 1
    32   18   19 ar
    33   18   21 1
    34   19   20 ar
    35   19   36 1
    36   20   37 1
    37   21   22 2
    38   21   23 am
    39   23   38 1
    40   23   39 1
@<TRIPOS>MOLECULE
ZINC03259140
   46    48     0     0     0
SMALL
USER_CHARGES

@<TRIPOS>ATOM
      1 C1          6.8592   -0.8505   -0.1090 C.3       1 <0>        -0.1937
      2 C2          6.6790    0.6689   -0.1033 C.3       1 <0>         0.0134
      3 C3          7.3152    1.2626   -1.3617 C.3       1 <0>        -0.2086
      4 C4          7.3548    1.2580    1.1364 C.3       1 <0>        -0.2086
      5 C5          5.2090    1.0003   -0.0794 C.2       1 <0>        -0.1774
      6 C6          4.7846    2.3465   -0.0697 C.2       1 <0>         0.3165
      7 O1          5.5934    3.2593   -0.0804 O.2       1 <0>        -0.3509
      8 N1          3.4565    2.5948   -0.0478 N.am      1 <0>        -0.1368
      9 C7          2.5920    1.5332   -0.0361 C.2       1 <0>         0.1420
     10 C8          1.2393    2.0922   -0.0136 C.2       1 <0>        -0.3574
     11 C9          1.3846    3.4856   -0.0193 C.2       1 <0>         0.2919
     12 N2          2.7139    3.7772   -0.0337 N.pl3     1 <0>        -0.2208
     13 H1          3.0890    4.6717   -0.0382 H         1 <0>         0.2892
     14 N3          0.3685    4.3940   -0.0093 N.pl3     1 <0>        -0.3543
     15 C10        -0.0166    1.3436    0.0049 C.2       1 <0>         0.4108
     16 O2         -1.0795    1.9377    0.0178 O.2       1 <0>        -0.4217
     17 N4          0.0021   -0.0041    0.0020 N.am      1 <0>        -0.2969
     18 C11        -1.1958   -0.7214    0.1153 C.ar      1 <0>         0.0395
     19 C12        -2.3579   -0.2302   -0.4615 C.ar      1 <0>        -0.0975
     20 C13        -3.5373   -0.9424   -0.3528 C.ar      1 <0>        -0.1544
     21 C14        -3.5650   -2.1394    0.3388 C.ar      1 <0>        -0.1076
     22 C15        -2.4120   -2.6324    0.9212 C.ar      1 <0>        -0.2082
     23 C16        -1.2245   -1.9272    0.8124 C.ar      1 <0>         0.0688
     24 O3         -0.0898   -2.4106    1.3851 O.3       1 <0>        -0.2106
     25 C17        -0.1942   -3.6527    2.0840 C.3       1 <0>        -0.0603
     26 N5          3.0545    0.2914   -0.0462 N.2       1 <0>        -0.1692
     27 N6          4.3148    0.0383   -0.0670 N.2       1 <0>         0.0313
     28 H2          6.3776   -1.2702   -0.9923 H         1 <0>         0.0860
     29 H3          7.9223   -1.0902   -0.1263 H         1 <0>         0.0727
     30 H4          6.4059   -1.2735    0.7875 H         1 <0>         0.0861
     31 H5          7.1868    2.3450   -1.3577 H         1 <0>         0.0970
     32 H6          8.3784    1.0229   -1.3790 H         1 <0>         0.0788
     33 H7          6.8337    0.8429   -2.2450 H         1 <0>         0.0746
     34 H8          6.9016    0.8350    2.0329 H         1 <0>         0.0748
     35 H9          8.4180    1.0182    1.1191 H         1 <0>         0.0787
     36 H10         7.2265    2.3404    1.1405 H         1 <0>         0.0971
     37 H11        -0.5529    4.0909    0.0031 H         1 <0>         0.2890
     38 H12         0.5667    5.3435   -0.0144 H         1 <0>         0.2266
     39 H13         0.8450   -0.4772   -0.0785 H         1 <0>         0.2668
     40 H14        -2.3401    0.7065   -0.9988 H         1 <0>         0.1665
     41 H15        -4.4405   -0.5610   -0.8058 H         1 <0>         0.1313
     42 H16        -4.4898   -2.6905    0.4247 H         1 <0>         0.1276
     43 H17        -2.4372   -3.5672    1.4614 H         1 <0>         0.1352
     44 H18        -0.9130   -3.5526    2.8973 H         1 <0>         0.0670
     45 H19        -0.5292   -4.4294    1.3965 H         1 <0>         0.0666
     46 H20         0.7799   -3.9234    2.4913 H         1 <0>         0.1091
@<TRIPOS>BOND
     1    1    2 1
     2    1   28 1
     3    1   29 1
     4    1   30 1
     5    2    3 1
     6    2    4 1
     7    2    5 1
     8    3   31 1
     9    3   32 1
    10    3   33 1
    11    4   34 1
    12    4   35 1
    13    4   36 1
    14    5   27 2
    15    5    6 1
    16    6    7 2
    17    6    8 am
    18    8   12 1
    19    8    9 1
    20    9   10 1
    21    9   26 2
    22   10   11 2
    23   10   15 1
    24   11   12 1
    25   11   14 1
    26   12   13 1
    27   14   37 1
    28   14   38 1
    29   15   16 2
    30   15   17 am
    31   17   18 1
    32   17   39 1
    33   18   23 ar
    34   18   19 ar
    35   19   20 ar
    36   19   40 1
    37   20   21 ar
    38   20   41 1
    39   21   22 ar
    40   21   42 1
    41   22   23 ar
    42   22   43 1
    43   23   24 1
    44   24   25 1
    45   25   44 1
    46   25   45 1
    47   25   46 1
    48   26   27 1
@<TRIPOS>MOLECULE
ZINC03260190
   43    46     0     0     0
SMALL
USER_CHARGES

@<TRIPOS>ATOM
      1 C1         -5.4743   -5.1480   -5.4241 C.3       1 <0>        -0.1412
      2 C2         -5.5988   -4.4907   -4.0737 C.2       1 <0>        -0.0502
      3 C3         -6.4548   -3.5011   -3.7328 C.2       1 <0>        -0.2639
      4 C4         -6.1632   -3.2520   -2.3646 C.2       1 <0>         0.0171
      5 N1         -5.2014   -4.0769   -2.0406 N.2       1 <0>        -0.0988
      6 O1         -4.8820   -4.7732   -2.9761 O.3       1 <0>         0.0540
      7 N2         -6.7737   -2.3148   -1.5377 N.pl3     1 <0>        -0.7681
      8 S1         -6.2965   -2.1680    0.0411 S.o2      1 <0>         2.7544
      9 O2         -6.2744   -3.4816    0.5826 O.2       1 <0>        -0.8581
     10 O3         -7.0776   -1.1241    0.6062 O.2       1 <0>        -0.8918
     11 C5         -4.6286   -1.5997    0.0305 C.ar      1 <0>        -0.7551
     12 C6         -4.3620   -0.2428    0.0377 C.ar      1 <0>         0.0212
     13 C7         -3.0560    0.2059    0.0289 C.ar      1 <0>        -0.2193
     14 C8         -2.0095   -0.7073    0.0128 C.ar      1 <0>         0.0961
     15 C9         -2.2808   -2.0696   -0.0001 C.ar      1 <0>        -0.1631
     16 C10        -3.5891   -2.5117    0.0145 C.ar      1 <0>         0.0437
     17 N3         -0.6862   -0.2565    0.0040 N.pl3     1 <0>        -0.1951
     18 C11         0.5108   -1.1046   -0.0130 C.3       1 <0>         0.0004
     19 C12         1.6971   -0.1733   -0.0178 C.ar      1 <0>        -0.0510
     20 C13         3.0571   -0.3912   -0.0323 C.ar      1 <0>        -0.0999
     21 C14         3.9302    0.6828   -0.0335 C.ar      1 <0>        -0.0471
     22 C15         3.4408    1.9770   -0.0206 C.ar      1 <0>        -0.1151
     23 C16         2.0806    2.2059   -0.0060 C.ar      1 <0>        -0.0440
     24 C17         1.1944    1.1277   -0.0042 C.ar      1 <0>        -0.1585
     25 C18        -0.2824    1.0596    0.0092 C.cat     1 <0>         0.3108
     26 H1         -0.8098    3.0260    0.0224 H         1 <0>         0.2767
     27 H2         -4.7447   -4.6063   -6.0259 H         1 <0>         0.1033
     28 H3         -5.1463   -6.1797   -5.2973 H         1 <0>         0.1080
     29 H4         -6.4418   -5.1335   -5.9259 H         1 <0>         0.1115
     30 H5         -7.1899   -3.0135   -4.3558 H         1 <0>         0.1829
     31 H6         -7.4791   -1.7473   -1.8859 H         1 <0>         0.2707
     32 H7         -5.1760    0.4668    0.0505 H         1 <0>         0.1708
     33 H8         -2.8484    1.2658    0.0349 H         1 <0>         0.1312
     34 H9         -1.4695   -2.7822   -0.0171 H         1 <0>         0.1546
     35 H10        -3.8007   -3.5707    0.0089 H         1 <0>         0.1974
     36 H11         0.5345   -1.7352    0.8757 H         1 <0>         0.1474
     37 H12         0.5173   -1.7237   -0.9101 H         1 <0>         0.1459
     38 H13         3.4422   -1.4001   -0.0432 H         1 <0>         0.1626
     39 H14         4.9962    0.5102   -0.0450 H         1 <0>         0.1680
     40 H15         4.1266    2.8112   -0.0224 H         1 <0>         0.1677
     41 H16         1.7020    3.2173    0.0045 H         1 <0>         0.1450
     42 N4         -1.1465    2.0631    0.0188 N.pl3     1 <0>        -0.3344
     43 H17        -2.1553    1.8719    0.0227 H         1 <0>         0.3132
@<TRIPOS>BOND
     1    1    2 1
     2    1   27 1
     3    1   28 1
     4    1   29 1
     5    2    6 1
     6    2    3 2
     7    3    4 1
     8    3   30 1
     9    4    5 2
    10    4    7 1
    11    5    6 1
    12    7    8 1
    13    7   31 1
    14    8    9 2
    15    8   10 2
    16    8   11 1
    17   11   16 ar
    18   11   12 ar
    19   12   13 ar
    20   12   32 1
    21   13   14 ar
    22   13   33 1
    23   14   15 ar
    24   14   17 1
    25   15   16 ar
    26   15   34 1
    27   16   35 1
    28   17   25 1
    29   17   18 1
    30   18   19 1
    31   18   36 1
    32   18   37 1
    33   19   24 ar
    34   19   20 ar
    35   20   21 ar
    36   20   38 1
    37   21   22 ar
    38   21   39 1
    39   22   23 ar
    40   22   40 1
    41   23   24 ar
    42   23   41 1
    43   24   25 1
    44   25   42 2
    45   26   42 1
    46   42   43 1
@<TRIPOS>MOLECULE
ZINC03261619
   42    44     0     0     0
SMALL
USER_CHARGES

@<TRIPOS>ATOM
      1 C1         12.4319   -7.4830    6.5091 C.3       1 <0>        -0.2383
      2 C2         11.9855   -6.1315    6.0139 C.2       1 <0>         0.3017
      3 O1         12.7888   -5.3738    5.5124 O.2       1 <0>        -0.3537
      4 N1         10.6936   -5.7648    6.1283 N.am      1 <0>        -0.3299
      5 C3         10.2597   -4.5515    5.5825 C.ar      1 <0>         0.0618
      6 C4         11.1015   -3.4456    5.5895 C.ar      1 <0>        -0.1187
      7 C5         10.6773   -2.2458    5.0508 C.ar      1 <0>        -0.1087
      8 C6          9.4167   -2.1397    4.4980 C.ar      1 <0>        -0.1343
      9 C7          8.5628   -3.2423    4.4916 C.ar      1 <0>        -0.0283
     10 C8          8.9903   -4.4525    5.0344 C.ar      1 <0>        -0.1417
     11 C9          7.2078   -3.1290    3.9042 C.2       1 <0>         0.1093
     12 C10         6.3950   -4.1859    3.8942 C.2       1 <0>        -0.3536
     13 N2          6.7818   -1.9162    3.3613 N.pl3     1 <0>        -0.2692
     14 N3          5.5002   -1.8091    2.8057 N.am      1 <0>        -0.2665
     15 C11         5.0888   -0.6376    2.2813 C.2       1 <0>         0.3486
     16 O2          5.8300    0.3262    2.2904 O.2       1 <0>        -0.3729
     17 C12         3.7385   -0.5247    1.6960 C.ar      1 <0>        -0.1202
     18 C13         2.8855   -1.6311    1.6846 C.ar      1 <0>        -0.1024
     19 C14         1.6259   -1.5242    1.1369 C.ar      1 <0>        -0.1226
     20 C15         1.1991   -0.3187    0.5957 C.ar      1 <0>         0.0297
     21 C16         2.0461    0.7902    0.6046 C.ar      1 <0>        -0.0055
     22 C17         3.3104    0.6887    1.1515 C.ar      1 <0>        -0.0506
     23 O3          1.3960    1.8392    0.0203 O.3       1 <0>        -0.2014
     24 C18         0.0025    1.4771    0.0243 C.3       1 <0>         0.1062
     25 O4          0.0223    0.0377    0.0062 O.3       1 <0>        -0.2042
     26 H1         12.3430   -8.2125    5.7040 H         1 <0>         0.1089
     27 H2         13.4706   -7.4258    6.8346 H         1 <0>         0.1182
     28 H3         11.8049   -7.7883    7.3468 H         1 <0>         0.0832
     29 H4         10.0647   -6.3419    6.5890 H         1 <0>         0.2326
     30 H5         12.0902   -3.5243    6.0170 H         1 <0>         0.1677
     31 H6         11.3356   -1.3897    5.0585 H         1 <0>         0.1388
     32 H7          9.0904   -1.2016    4.0739 H         1 <0>         0.1316
     33 H8          8.3345   -5.3106    5.0283 H         1 <0>         0.1390
     34 H9          6.7247   -5.1246    4.3144 H         1 <0>         0.1284
     35 H10         5.4070   -4.1033    3.4659 H         1 <0>         0.1041
     36 H11         7.3731   -1.1473    3.3686 H         1 <0>         0.2764
     37 H12         4.9089   -2.5780    2.7984 H         1 <0>         0.2554
     38 H13         3.2136   -2.5703    2.1048 H         1 <0>         0.1336
     39 H14         0.9680   -2.3807    1.1288 H         1 <0>         0.1484
     40 H15         3.9671    1.5460    1.1582 H         1 <0>         0.1726
     41 H16        -0.4963    1.8644   -0.8642 H         1 <0>         0.1346
     42 H17        -0.4853    1.8421    0.9281 H         1 <0>         0.0918
@<TRIPOS>BOND
     1    1    2 1
     2    1   26 1
     3    1   27 1
     4    1   28 1
     5    2    3 2
     6    2    4 am
     7    4    5 1
     8    4   29 1
     9    5   10 ar
    10    5    6 ar
    11    6    7 ar
    12    6   30 1
    13    7    8 ar
    14    7   31 1
    15    8    9 ar
    16    8   32 1
    17    9   10 ar
    18    9   11 1
    19   10   33 1
    20   11   12 2
    21   11   13 1
    22   12   34 1
    23   12   35 1
    24   13   14 1
    25   13   36 1
    26   14   15 am
    27   14   37 1
    28   15   16 2
    29   15   17 1
    30   17   22 ar
    31   17   18 ar
    32   18   19 ar
    33   18   38 1
    34   19   20 ar
    35   19   39 1
    36   20   25 1
    37   20   21 ar
    38   21   22 ar
    39   21   23 1
    40   22   40 1
    41   23   24 1
    42   24   25 1
    43   24   41 1
    44   24   42 1
@<TRIPOS>MOLECULE
ZINC03262087
   39    40     0     0     0
SMALL
USER_CHARGES

@<TRIPOS>ATOM
      1 C1          1.9970   14.8049    0.1817 C.3       1 <0>        -0.1734
      2 C2          3.0265   13.7082    0.0903 C.2       1 <0>        -0.0279
      3 C3          4.3643   13.9897   -0.0267 C.2       1 <0>        -0.2032
      4 C4          5.2533   12.9650   -0.1119 C.2       1 <0>        -0.3255
      5 S1          4.2450   11.5575   -0.0237 S.3       1 <0>         0.4717
      6 C5          2.6636   12.3699    0.1247 C.2       1 <0>        -0.3496
      7 C6          1.3299   11.7782    0.2449 C.2       1 <0>         0.4010
      8 O1          0.3523   12.4959    0.3370 O.2       1 <0>        -0.3646
      9 O2          1.1853   10.4371    0.2536 O.3       1 <0>        -0.2299
     10 C7         -0.1662    9.9206    0.3757 C.3       1 <0>        -0.0235
     11 C8         -0.1309    8.4140    0.3672 C.2       1 <0>         0.2956
     12 O3          0.9290    7.8328    0.2681 O.2       1 <0>        -0.3203
     13 N1         -1.2771    7.7125    0.4699 N.am      1 <0>        -0.3273
     14 C9         -1.2554    6.3159    0.3641 C.ar      1 <0>         0.0388
     15 C10        -2.3119    5.6490   -0.2421 C.ar      1 <0>        -0.1399
     16 C11        -2.2902    4.2727   -0.3468 C.ar      1 <0>        -0.1525
     17 C12        -1.2120    3.5551    0.1542 C.ar      1 <0>         0.0512
     18 C13        -0.1582    4.2216    0.7656 C.ar      1 <0>        -0.1193
     19 C14        -0.1772    5.5983    0.8651 C.ar      1 <0>        -0.1054
     20 N2         -1.1900    2.1586    0.0480 N.am      1 <0>        -0.3258
     21 C15        -0.0128    1.5026    0.0291 C.2       1 <0>         0.2991
     22 O4          1.0278    2.1250   -0.0046 O.2       1 <0>        -0.3496
     23 C16         0.0105   -0.0041    0.0436 C.3       1 <0>        -0.2388
     24 H1          1.8410   15.0706    1.2272 H         1 <0>         0.0947
     25 H2          2.3477   15.6791   -0.3669 H         1 <0>         0.0787
     26 H3          1.0577   14.4583   -0.2492 H         1 <0>         0.1159
     27 H4          4.7066   15.0137   -0.0552 H         1 <0>         0.1487
     28 H5          6.3276   13.0155   -0.2102 H         1 <0>         0.1901
     29 H6         -0.7675   10.2746   -0.4617 H         1 <0>         0.1104
     30 H7         -0.6051   10.2685    1.3108 H         1 <0>         0.1081
     31 H8         -2.1171    8.1747    0.6170 H         1 <0>         0.2303
     32 H9         -3.1503    6.2070   -0.6321 H         1 <0>         0.1299
     33 H10        -3.1117    3.7540   -0.8186 H         1 <0>         0.1296
     34 H11         0.6781    3.6632    1.1595 H         1 <0>         0.1742
     35 H12         0.6447    6.1171    1.3362 H         1 <0>         0.1702
     36 H13        -2.0220    1.6636   -0.0120 H         1 <0>         0.2304
     37 H14         0.0433   -0.3571    1.0744 H         1 <0>         0.1068
     38 H15        -0.8870   -0.3861   -0.4429 H         1 <0>         0.0824
     39 H16         0.8922   -0.3590   -0.4901 H         1 <0>         0.1187
@<TRIPOS>BOND
     1    1    2 1
     2    1   24 1
     3    1   25 1
     4    1   26 1
     5    2    6 2
     6    2    3 1
     7    3    4 2
     8    3   27 1
     9    4    5 1
    10    4   28 1
    11    5    6 1
    12    6    7 1
    13    7    8 2
    14    7    9 1
    15    9   10 1
    16   10   11 1
    17   10   29 1
    18   10   30 1
    19   11   12 2
    20   11   13 am
    21   13   14 1
    22   13   31 1
    23   14   19 ar
    24   14   15 ar
    25   15   16 ar
    26   15   32 1
    27   16   17 ar
    28   16   33 1
    29   17   18 ar
    30   17   20 1
    31   18   19 ar
    32   18   34 1
    33   19   35 1
    34   20   21 am
    35   20   36 1
    36   21   22 2
    37   21   23 1
    38   23   37 1
    39   23   38 1
    40   23   39 1
@<TRIPOS>MOLECULE
ZINC03262185
   39    40     0     0     0
SMALL
USER_CHARGES

@<TRIPOS>ATOM
      1 C1          6.7526   13.0354   -0.2469 C.3       1 <0>        -0.1352
      2 C2          5.2535   12.9650   -0.1098 C.2       1 <0>        -0.2726
      3 C3          4.3644   13.9897   -0.0251 C.2       1 <0>        -0.2116
      4 C4          3.0271   13.7082    0.0960 C.2       1 <0>        -0.0809
      5 C5          2.6636   12.3699    0.1247 C.2       1 <0>        -0.3466
      6 S1          4.2458   11.5575   -0.0152 S.3       1 <0>         0.4743
      7 C6          1.3299   11.7782    0.2449 C.2       1 <0>         0.3980
      8 O1          0.3523   12.4959    0.3370 O.2       1 <0>        -0.3603
      9 O2          1.1853   10.4371    0.2536 O.3       1 <0>        -0.2308
     10 C7         -0.1662    9.9206    0.3757 C.3       1 <0>        -0.0233
     11 C8         -0.1309    8.4140    0.3672 C.2       1 <0>         0.2957
     12 O3          0.9290    7.8328    0.2681 O.2       1 <0>        -0.3207
     13 N1         -1.2771    7.7125    0.4699 N.am      1 <0>        -0.3273
     14 C9         -1.2554    6.3159    0.3641 C.ar      1 <0>         0.0388
     15 C10        -2.3119    5.6490   -0.2421 C.ar      1 <0>        -0.1399
     16 C11        -2.2902    4.2727   -0.3468 C.ar      1 <0>        -0.1527
     17 C12        -1.2120    3.5551    0.1542 C.ar      1 <0>         0.0514
     18 C13        -0.1582    4.2216    0.7656 C.ar      1 <0>        -0.1194
     19 C14        -0.1772    5.5983    0.8651 C.ar      1 <0>        -0.1054
     20 N2         -1.1900    2.1586    0.0480 N.am      1 <0>        -0.3265
     21 C15        -0.0128    1.5026    0.0291 C.2       1 <0>         0.2991
     22 O4          1.0278    2.1250   -0.0046 O.2       1 <0>        -0.3489
     23 C16         0.0105   -0.0041    0.0436 C.3       1 <0>        -0.2416
     24 H1          7.2078   13.0492    0.7435 H         1 <0>         0.0963
     25 H2          7.1083   12.1649   -0.7981 H         1 <0>         0.0917
     26 H3          7.0260   13.9429   -0.7851 H         1 <0>         0.0951
     27 H4          4.7068   15.0137   -0.0533 H         1 <0>         0.1477
     28 H5          2.2896   14.4942    0.1656 H         1 <0>         0.1616
     29 H6         -0.7675   10.2746   -0.4617 H         1 <0>         0.1108
     30 H7         -0.6051   10.2685    1.3108 H         1 <0>         0.1083
     31 H8         -2.1171    8.1747    0.6170 H         1 <0>         0.2304
     32 H9         -3.1503    6.2071   -0.6321 H         1 <0>         0.1300
     33 H10        -3.1117    3.7540   -0.8186 H         1 <0>         0.1296
     34 H11         0.6781    3.6632    1.1595 H         1 <0>         0.1742
     35 H12         0.6447    6.1171    1.3362 H         1 <0>         0.1702
     36 H13        -2.0220    1.6636   -0.0120 H         1 <0>         0.2302
     37 H14         1.0433   -0.3518    0.0198 H         1 <0>         0.1197
     38 H15        -0.4739   -0.3663    0.9503 H         1 <0>         0.0957
     39 H16        -0.5209   -0.3842   -0.8289 H         1 <0>         0.0949
@<TRIPOS>BOND
     1    1    2 1
     2    1   24 1
     3    1   25 1
     4    1   26 1
     5    2    6 1
     6    2    3 2
     7    3    4 1
     8    3   27 1
     9    4    5 2
    10    4   28 1
    11    5    6 1
    12    5    7 1
    13    7    8 2
    14    7    9 1
    15    9   10 1
    16   10   11 1
    17   10   29 1
    18   10   30 1
    19   11   12 2
    20   11   13 am
    21   13   14 1
    22   13   31 1
    23   14   19 ar
    24   14   15 ar
    25   15   16 ar
    26   15   32 1
    27   16   17 ar
    28   16   33 1
    29   17   18 ar
    30   17   20 1
    31   18   19 ar
    32   18   34 1
    33   19   35 1
    34   20   21 am
    35   20   36 1
    36   21   22 2
    37   21   23 1
    38   23   37 1
    39   23   38 1
    40   23   39 1
@<TRIPOS>MOLECULE
ZINC03263124
   39    40     0     0     0
SMALL
USER_CHARGES

@<TRIPOS>ATOM
      1 C1          0.0101   -0.0044    0.0435 C.3       1 <0>        -0.2388
      2 C2         -0.0130    1.5024    0.0290 C.2       1 <0>         0.2992
      3 O1          1.0277    2.1245   -0.0047 O.2       1 <0>        -0.3497
      4 N1         -1.1901    2.1585    0.0480 N.am      1 <0>        -0.3258
      5 C3         -1.2118    3.5551    0.1543 C.ar      1 <0>         0.0514
      6 C4         -0.1579    4.2214    0.7657 C.ar      1 <0>        -0.1194
      7 C5         -0.1774    5.5979    0.8670 C.ar      1 <0>        -0.1056
      8 C6         -1.2553    6.3158    0.3657 C.ar      1 <0>         0.0384
      9 C7         -2.3115    5.6491   -0.2415 C.ar      1 <0>        -0.1397
     10 C8         -2.2899    4.2729   -0.3467 C.ar      1 <0>        -0.1524
     11 N2         -1.2771    7.7123    0.4720 N.am      1 <0>        -0.3270
     12 C9         -0.1307    8.4138    0.3703 C.2       1 <0>         0.2957
     13 O2          0.9292    7.8325    0.2715 O.2       1 <0>        -0.3221
     14 C10        -0.1659    9.9204    0.3793 C.3       1 <0>        -0.0263
     15 O3          1.1857   10.4368    0.2582 O.3       1 <0>        -0.2356
     16 C11         1.3297   11.7713    0.2503 C.2       1 <0>         0.2982
     17 O4          0.3585   12.4843    0.3415 O.2       1 <0>        -0.3479
     18 C12         2.7027   12.3803    0.1276 C.3       1 <0>        -0.0629
     19 C13         2.5890   13.8830    0.1437 C.2       1 <0>        -0.2635
     20 C14         2.6146   14.7296    1.2020 C.2       1 <0>        -0.1512
     21 C15         2.4951   16.0881    0.9765 C.2       1 <0>        -0.1756
     22 C16         2.3452   16.5328   -0.2951 C.2       1 <0>        -0.3003
     23 S1          2.3778   15.0092   -1.2252 S.3       1 <0>         0.3395
     24 H1          0.0428   -0.3574    1.0742 H         1 <0>         0.1068
     25 H2         -0.8875   -0.3862   -0.4430 H         1 <0>         0.0825
     26 H3          0.8916   -0.3594   -0.4903 H         1 <0>         0.1187
     27 H4         -2.0222    1.6637   -0.0120 H         1 <0>         0.2305
     28 H5          0.6787    3.6628    1.1590 H         1 <0>         0.1743
     29 H6          0.6441    6.1164    1.3389 H         1 <0>         0.1698
     30 H7         -3.1496    6.2074   -0.6317 H         1 <0>         0.1301
     31 H8         -3.1112    3.7544   -0.8189 H         1 <0>         0.1298
     32 H9         -2.1171    8.1745    0.6188 H         1 <0>         0.2306
     33 H10        -0.7667   10.2748   -0.4583 H         1 <0>         0.1110
     34 H11        -0.6053   10.2679    1.3143 H         1 <0>         0.1080
     35 H12         3.3210   12.0538    0.9637 H         1 <0>         0.1304
     36 H13         3.1596   12.0606   -0.8089 H         1 <0>         0.1280
     37 H14         2.7294   14.3487    2.2060 H         1 <0>         0.1416
     38 H15         2.5162   16.7846    1.8017 H         1 <0>         0.1426
     39 H16         2.2344   17.5458   -0.6529 H         1 <0>         0.1868
@<TRIPOS>BOND
     1    1    2 1
     2    1   24 1
     3    1   25 1
     4    1   26 1
     5    2    3 2
     6    2    4 am
     7    4    5 1
     8    4   27 1
     9    5   10 ar
    10    5    6 ar
    11    6    7 ar
    12    6   28 1
    13    7    8 ar
    14    7   29 1
    15    8    9 ar
    16    8   11 1
    17    9   10 ar
    18    9   30 1
    19   10   31 1
    20   11   12 am
    21   11   32 1
    22   12   13 2
    23   12   14 1
    24   14   15 1
    25   14   33 1
    26   14   34 1
    27   15   16 1
    28   16   17 2
    29   16   18 1
    30   18   19 1
    31   18   35 1
    32   18   36 1
    33   19   23 1
    34   19   20 2
    35   20   21 1
    36   20   37 1
    37   21   22 2
    38   21   38 1
    39   22   23 1
    40   22   39 1
@<TRIPOS>MOLECULE
ZINC03264694
   41    43     0     0     0
SMALL
USER_CHARGES

@<TRIPOS>ATOM
      1 C1          8.2163    2.8718    0.2340 C.ar      1 <0>        -0.0463
      2 C2          7.1366    2.0246    0.3425 C.ar      1 <0>        -0.1740
      3 C3          5.8934    2.4135   -0.1465 C.ar      1 <0>         0.0883
      4 C4          5.7381    3.6569   -0.7511 C.ar      1 <0>        -0.1390
      5 C5          6.8124    4.5114   -0.8573 C.ar      1 <0>        -0.0855
      6 C6          8.0625    4.1237   -0.3676 C.ar      1 <0>        -0.1482
      7 C7          9.2181    5.0344   -0.4860 C.2       1 <0>         0.3517
      8 O1         10.3052    4.6956   -0.0599 O.2       1 <0>        -0.3716
      9 N1          9.0681    6.2414   -1.0665 N.am      1 <0>        -0.4284
     10 N2          4.8019    1.5528   -0.0355 N.am      1 <0>        -0.3285
     11 C8          3.5646    2.0540    0.1499 C.2       1 <0>         0.2965
     12 O2          3.4117    3.2456    0.3159 O.2       1 <0>        -0.3193
     13 C9          2.3713    1.1338    0.1511 C.3       1 <0>        -0.0282
     14 O3          1.1627    1.9087    0.3683 O.3       1 <0>        -0.2350
     15 C10         0.0029    1.2336    0.3971 C.2       1 <0>         0.3105
     16 O4         -0.0023    0.0349    0.2459 O.2       1 <0>        -0.3640
     17 C11        -1.2934    1.9716    0.6119 C.3       1 <0>        -0.1041
     18 H1         -1.4418    2.7182   -0.1683 H         1 <0>         0.1266
     19 C12        -1.3170    2.6343    2.0111 C.3       1 <0>        -0.1462
     20 C13        -2.5311    1.9469    2.7211 C.3       1 <0>        -0.1011
     21 H2         -2.5869    2.0414    3.8056 H         1 <0>         0.1197
     22 C14        -2.4103    0.4885    2.1456 C.3       1 <0>        -0.1574
     23 C15        -2.4937    0.9730    0.6518 C.3       1 <0>        -0.0721
     24 H3         -2.5099    0.2063   -0.1229 H         1 <0>         0.1333
     25 C16        -3.7289    1.8777    0.7394 C.2       1 <0>        -0.1839
     26 C17        -3.7504    2.4389    1.9317 C.2       1 <0>        -0.1695
     27 H4          9.1810    2.5693    0.6138 H         1 <0>         0.1605
     28 H5          7.2547    1.0570    0.8073 H         1 <0>         0.1362
     29 H6          4.7729    3.9538   -1.1339 H         1 <0>         0.1627
     30 H7          6.6902    5.4781   -1.3231 H         1 <0>         0.1296
     31 H8          8.2007    6.5117   -1.4065 H         1 <0>         0.2162
     32 H9          9.8275    6.8399   -1.1443 H         1 <0>         0.2314
     33 H10         4.9332    0.5934   -0.0916 H         1 <0>         0.2355
     34 H11         2.4799    0.3989    0.9487 H         1 <0>         0.1096
     35 H12         2.3067    0.6214   -0.8088 H         1 <0>         0.1110
     36 H13        -0.3911    2.4286    2.5482 H         1 <0>         0.0980
     37 H14        -1.4798    3.7086    1.9235 H         1 <0>         0.1004
     38 H15        -3.2530   -0.1428    2.4275 H         1 <0>         0.0998
     39 H16        -1.4525    0.0246    2.3812 H         1 <0>         0.1011
     40 H17        -4.4575    2.0292   -0.0432 H         1 <0>         0.1424
     41 H18        -4.4997    3.1283    2.2918 H         1 <0>         0.1414
@<TRIPOS>BOND
     1    1    6 ar
     2    1    2 ar
     3    1   27 1
     4    2    3 ar
     5    2   28 1
     6    3    4 ar
     7    3   10 1
     8    4    5 ar
     9    4   29 1
    10    5    6 ar
    11    5   30 1
    12    6    7 1
    13    7    8 2
    14    7    9 am
    15    9   31 1
    16    9   32 1
    17   10   11 am
    18   10   33 1
    19   11   12 2
    20   11   13 1
    21   13   14 1
    22   13   34 1
    23   13   35 1
    24   14   15 1
    25   15   16 2
    26   15   17 1
    27   17   18 1
    28   17   23 1
    29   17   19 1
    30   19   20 1
    31   19   36 1
    32   19   37 1
    33   20   21 1
    34   20   26 1
    35   20   22 1
    36   22   23 1
    37   22   38 1
    38   22   39 1
    39   23   24 1
    40   23   25 1
    41   25   26 2
    42   25   40 1
    43   26   41 1
@<TRIPOS>MOLECULE
ZINC03277114
   43    45     0     0     0
SMALL
USER_CHARGES

@<TRIPOS>ATOM
      1 C1         -0.4804    2.3675    5.6163 C.3       1 <0>        -0.1755
      2 C2          0.1156    1.4623    4.5691 C.ar      1 <0>        -0.0558
      3 C3          0.2684    0.1139    4.8267 C.ar      1 <0>        -0.1275
      4 C4          0.8159   -0.7171    3.8668 C.ar      1 <0>        -0.1167
      5 C5          1.2114   -0.2016    2.6459 C.ar      1 <0>        -0.1256
      6 C6          1.0605    1.1454    2.3819 C.ar      1 <0>        -0.0585
      7 C7          0.5161    1.9838    3.3461 C.ar      1 <0>         0.0496
      8 N1          0.3672    3.3501    3.0839 N.am      1 <0>        -0.3349
      9 C8          1.2008    4.2410    3.6565 C.2       1 <0>         0.3129
     10 O1          2.1359    3.8538    4.3249 O.2       1 <0>        -0.3388
     11 C9          0.9712    5.7182    3.4661 C.3       1 <0>        -0.3114
     12 S1          2.2482    6.6463    4.3515 S.3       1 <0>         0.3089
     13 C10         1.7507    8.2927    3.9686 C.ar      1 <0>        -0.0189
     14 C11         2.4938    9.4460    4.4722 C.ar      1 <0>        -0.3055
     15 C12         3.6079    9.6431    5.2555 C.2       1 <0>        -0.0363
     16 N2          3.8015   10.9642    5.3672 N.pl3     1 <0>        -0.1284
     17 H1          4.5426   11.3943    5.8827 H         1 <0>         0.2900
     18 N3          2.8123   11.6532    4.6551 N.2       1 <0>        -0.0712
     19 C13         1.9996   10.7830    4.0975 C.ar      1 <0>         0.0505
     20 N4          0.9014   10.8490    3.3199 N.ar      1 <0>        -0.1969
     21 C14         0.2982    9.7623    2.9140 C.ar      1 <0>         0.0615
     22 N5          0.6892    8.5326    3.2067 N.ar      1 <0>        -0.2870
     23 C15         1.4918    1.7062    1.0512 C.3       1 <0>        -0.0783
     24 C16         2.9883    1.4567    0.8535 C.3       1 <0>        -0.2031
     25 C17         0.7079    1.0203   -0.0695 C.3       1 <0>        -0.2051
     26 H2          0.2995    2.6856    6.3081 H         1 <0>         0.1009
     27 H3         -0.9174    3.2421    5.1344 H         1 <0>         0.0775
     28 H4         -1.2544    1.8295    6.1637 H         1 <0>         0.0811
     29 H5         -0.0398   -0.2917    5.7790 H         1 <0>         0.1338
     30 H6          0.9347   -1.7710    4.0707 H         1 <0>         0.1308
     31 H7          1.6385   -0.8534    1.8980 H         1 <0>         0.1347
     32 H8         -0.3361    3.6562    2.4900 H         1 <0>         0.2333
     33 H9          1.0173    5.9592    2.4041 H         1 <0>         0.1374
     34 H10        -0.0101    5.9867    3.8574 H         1 <0>         0.1378
     35 H11         4.2171    8.8707    5.7013 H         1 <0>         0.1844
     36 H12        -0.5777    9.8763    2.2926 H         1 <0>         0.1940
     37 H13         1.2960    2.7782    1.0281 H         1 <0>         0.0927
     38 H14         3.1841    0.3847    0.8766 H         1 <0>         0.0751
     39 H15         3.5467    1.9453    1.6519 H         1 <0>         0.0882
     40 H16         3.3002    1.8623   -0.1089 H         1 <0>         0.0732
     41 H17         0.9037   -0.0517   -0.0463 H         1 <0>         0.0774
     42 H18        -0.3582    1.1980    0.0714 H         1 <0>         0.0737
     43 H19         1.0199    1.4259   -1.0319 H         1 <0>         0.0756
@<TRIPOS>BOND
     1    1    2 1
     2    1   26 1
     3    1   27 1
     4    1   28 1
     5    2    7 ar
     6    2    3 ar
     7    3    4 ar
     8    3   29 1
     9    4    5 ar
    10    4   30 1
    11    5    6 ar
    12    5   31 1
    13    6    7 ar
    14    6   23 1
    15    7    8 1
    16    8    9 am
    17    8   32 1
    18    9   10 2
    19    9   11 1
    20   11   12 1
    21   11   33 1
    22   11   34 1
    23   12   13 1
    24   13   22 ar
    25   13   14 ar
    26   14   19 ar
    27   14   15 2
    28   15   16 1
    29   15   35 1
    30   16   17 1
    31   16   18 1
    32   18   19 2
    33   19   20 ar
    34   20   21 ar
    35   21   22 ar
    36   21   36 1
    37   23   24 1
    38   23   25 1
    39   23   37 1
    40   24   38 1
    41   24   39 1
    42   24   40 1
    43   25   41 1
    44   25   42 1
    45   25   43 1
@<TRIPOS>MOLECULE
ZINC03277114
   43    45     0     0     0
SMALL
USER_CHARGES

@<TRIPOS>ATOM
      1 C1         -0.4804    2.3675    5.6163 C.3       1 <0>        -0.1755
      2 C2          0.1156    1.4623    4.5691 C.ar      1 <0>        -0.0556
      3 C3          0.2684    0.1139    4.8267 C.ar      1 <0>        -0.1273
      4 C4          0.8159   -0.7171    3.8668 C.ar      1 <0>        -0.1166
      5 C5          1.2114   -0.2016    2.6459 C.ar      1 <0>        -0.1256
      6 C6          1.0605    1.1454    2.3819 C.ar      1 <0>        -0.0585
      7 C7          0.5161    1.9838    3.3461 C.ar      1 <0>         0.0495
      8 N1          0.3672    3.3501    3.0839 N.am      1 <0>        -0.3352
      9 C8          1.2008    4.2410    3.6565 C.2       1 <0>         0.3130
     10 O1          2.1359    3.8538    4.3249 O.2       1 <0>        -0.3370
     11 C9          0.9712    5.7182    3.4661 C.3       1 <0>        -0.3151
     12 S1          2.2482    6.6463    4.3515 S.3       1 <0>         0.3239
     13 C10         1.7507    8.2927    3.9686 C.ar      1 <0>        -0.0301
     14 C11         2.4938    9.4460    4.4722 C.ar      1 <0>        -0.2848
     15 C12         3.6076    9.6431    5.2560 C.2       1 <0>        -0.0758
     16 N2          3.8010   10.9642    5.3679 N.2       1 <0>        -0.0615
     17 H1          2.7357   12.6476    4.5828 H         1 <0>         0.2949
     18 N3          2.8120   11.6532    4.6555 N.pl3     1 <0>        -0.1480
     19 C13         1.9996   10.7830    4.0975 C.ar      1 <0>         0.0967
     20 N4          0.9014   10.8490    3.3199 N.ar      1 <0>        -0.2489
     21 C14         0.2982    9.7623    2.9140 C.ar      1 <0>         0.0760
     22 N5          0.6892    8.5326    3.2067 N.ar      1 <0>        -0.2864
     23 C15         1.4918    1.7062    1.0512 C.3       1 <0>        -0.0782
     24 C16         2.9883    1.4567    0.8535 C.3       1 <0>        -0.2031
     25 C17         0.7079    1.0203   -0.0695 C.3       1 <0>        -0.2051
     26 H2          0.2995    2.6856    6.3081 H         1 <0>         0.1015
     27 H3         -0.9174    3.2421    5.1344 H         1 <0>         0.0771
     28 H4         -1.2544    1.8295    6.1637 H         1 <0>         0.0809
     29 H5         -0.0398   -0.2917    5.7790 H         1 <0>         0.1339
     30 H6          0.9347   -1.7710    4.0707 H         1 <0>         0.1308
     31 H7          1.6385   -0.8534    1.8980 H         1 <0>         0.1346
     32 H8         -0.3361    3.6562    2.4900 H         1 <0>         0.2327
     33 H9          1.0173    5.9592    2.4041 H         1 <0>         0.1362
     34 H10        -0.0101    5.9867    3.8574 H         1 <0>         0.1366
     35 H11         4.2171    8.8707    5.7014 H         1 <0>         0.1996
     36 H12        -0.5777    9.8763    2.2926 H         1 <0>         0.1944
     37 H13         1.2960    2.7782    1.0281 H         1 <0>         0.0925
     38 H14         3.1841    0.3847    0.8766 H         1 <0>         0.0751
     39 H15         3.5467    1.9453    1.6519 H         1 <0>         0.0887
     40 H16         3.3002    1.8623   -0.1089 H         1 <0>         0.0731
     41 H17         0.9037   -0.0517   -0.0463 H         1 <0>         0.0775
     42 H18        -0.3582    1.1980    0.0714 H         1 <0>         0.0734
     43 H19         1.0199    1.4259   -1.0319 H         1 <0>         0.0754
@<TRIPOS>BOND
     1    1    2 1
     2    1   26 1
     3    1   27 1
     4    1   28 1
     5    2    7 ar
     6    2    3 ar
     7    3    4 ar
     8    3   29 1
     9    4    5 ar
    10    4   30 1
    11    5    6 ar
    12    5   31 1
    13    6    7 ar
    14    6   23 1
    15    7    8 1
    16    8    9 am
    17    8   32 1
    18    9   10 2
    19    9   11 1
    20   11   12 1
    21   11   33 1
    22   11   34 1
    23   12   13 1
    24   13   22 ar
    25   13   14 ar
    26   14   15 1
    27   14   19 ar
    28   15   35 1
    29   15   16 2
    30   16   18 1
    31   17   18 1
    32   18   19 1
    33   19   20 ar
    34   20   21 ar
    35   21   22 ar
    36   21   36 1
    37   23   24 1
    38   23   25 1
    39   23   37 1
    40   24   38 1
    41   24   39 1
    42   24   40 1
    43   25   41 1
    44   25   42 1
    45   25   43 1
@<TRIPOS>MOLECULE
ZINC03277957
   39    41     0     0     0
SMALL
USER_CHARGES

@<TRIPOS>ATOM
      1 C1          1.0771   12.0454    0.0568 C.3       1 <0>        -0.1719
      2 C2          0.9651   10.5426    0.0495 C.ar      1 <0>        -0.0671
      3 C3         -0.2811    9.9326    0.0587 C.ar      1 <0>        -0.1275
      4 C4         -0.4107    8.5685    0.0532 C.ar      1 <0>        -0.0686
      5 C5          0.7311    7.7342    0.0370 C.ar      1 <0>        -0.0023
      6 C6          1.9832    8.3902    0.0280 C.ar      1 <0>        -0.2444
      7 C7          2.1032    9.7575    0.0340 C.ar      1 <0>        -0.0822
      8 S1          3.1237    7.0279    0.0173 S.3       1 <0>         0.2338
      9 C8          1.9082    5.7176    0.0145 C.2       1 <0>         0.0028
     10 N1          0.7777    6.3845    0.0294 N.2       1 <0>        -0.1892
     11 N2          2.1083    4.3468    0.0053 N.am      1 <0>        -0.2823
     12 C9          1.0507    3.5113    0.0109 C.2       1 <0>         0.2830
     13 O1         -0.0760    3.9595    0.0240 O.2       1 <0>        -0.2565
     14 C10         1.2684    2.0201    0.0008 C.3       1 <0>        -0.0204
     15 O2         -0.0162    1.3434    0.0094 O.3       1 <0>        -0.2364
     16 C11         0.0021   -0.0041    0.0020 C.2       1 <0>         0.3613
     17 O3          1.0625   -0.5973   -0.0113 O.2       1 <0>        -0.3775
     18 C12        -1.2641   -0.7583    0.0101 C.ar      1 <0>        -0.1830
     19 C13        -2.4854   -0.0772    0.0312 C.ar      1 <0>        -0.0220
     20 C14        -3.6616   -0.7818    0.0332 C.ar      1 <0>        -0.2298
     21 C15        -3.6409   -2.1740    0.0255 C.ar      1 <0>         0.1536
     22 C16        -2.4267   -2.8553    0.0098 C.ar      1 <0>        -0.2313
     23 C17        -1.2469   -2.1567    0.0024 C.ar      1 <0>        -0.0126
     24 N3         -4.8352   -2.8854    0.0331 N.pl3     1 <0>        -0.4064
     25 H1          1.0941   12.4135   -0.9690 H         1 <0>         0.0889
     26 H2          0.2216   12.4709    0.5814 H         1 <0>         0.0846
     27 H3          1.9966   12.3388    0.5634 H         1 <0>         0.0832
     28 H4         -1.1692   10.5470    0.0708 H         1 <0>         0.1358
     29 H5         -1.3957    8.1256    0.0604 H         1 <0>         0.1497
     30 H6          3.0805   10.2172    0.0270 H         1 <0>         0.1381
     31 H7          3.0096    3.9883   -0.0053 H         1 <0>         0.2490
     32 H8          1.8378    1.7301    0.8838 H         1 <0>         0.1100
     33 H9          1.8208    1.7397   -0.8960 H         1 <0>         0.1100
     34 H10        -2.5021    1.0027    0.0416 H         1 <0>         0.1563
     35 H11        -4.6051   -0.2564    0.0450 H         1 <0>         0.1362
     36 H12        -2.4142   -3.9352    0.0039 H         1 <0>         0.1356
     37 H13        -0.3055   -2.6857   -0.0098 H         1 <0>         0.1526
     38 H14        -4.8221   -3.8553    0.0274 H         1 <0>         0.2230
     39 H15        -5.6817   -2.4119    0.0440 H         1 <0>         0.2237
@<TRIPOS>BOND
     1    1    2 1
     2    1   25 1
     3    1   26 1
     4    1   27 1
     5    2    7 ar
     6    2    3 ar
     7    3    4 ar
     8    3   28 1
     9    4    5 ar
    10    4   29 1
    11    5   10 1
    12    5    6 ar
    13    6    7 ar
    14    6    8 1
    15    7   30 1
    16    8    9 1
    17    9   10 2
    18    9   11 1
    19   11   12 am
    20   11   31 1
    21   12   13 2
    22   12   14 1
    23   14   15 1
    24   14   32 1
    25   14   33 1
    26   15   16 1
    27   16   17 2
    28   16   18 1
    29   18   23 ar
    30   18   19 ar
    31   19   20 ar
    32   19   34 1
    33   20   21 ar
    34   20   35 1
    35   21   22 ar
    36   21   24 1
    37   22   23 ar
    38   22   36 1
    39   23   37 1
    40   24   38 1
    41   24   39 1
@<TRIPOS>MOLECULE
ZINC03299205
   46    47     0     0     0
SMALL
USER_CHARGES

@<TRIPOS>ATOM
      1 C1         -2.5356   -0.2005   -1.2291 C.3       1 <0>        -0.1965
      2 C2         -1.9340    0.8337   -2.1453 C.ar      1 <0>         0.0320
      3 C3         -2.4507    1.0173   -3.4144 C.ar      1 <0>        -0.1529
      4 C4         -1.8991    1.9661   -4.2546 C.ar      1 <0>        -0.0709
      5 C5         -0.8307    2.7317   -3.8258 C.ar      1 <0>        -0.0940
      6 C6         -0.3175    2.5518   -2.5551 C.ar      1 <0>        -0.0210
      7 C7         -0.8659    1.5991   -1.7166 C.ar      1 <0>        -0.7586
      8 S1         -0.2077    1.3655   -0.0989 S.o2      1 <0>         2.7668
      9 O1          0.8582    2.2943    0.0439 O.2       1 <0>        -0.9277
     10 O2         -1.3159    1.3351    0.7899 O.2       1 <0>        -0.9031
     11 N1          0.4718   -0.1442   -0.0601 N.pl3     1 <0>        -0.7990
     12 C8          1.5029   -0.4643   -0.9336 C.ar      1 <0>         0.1396
     13 C9          2.4452    0.4952   -1.2833 C.ar      1 <0>        -0.1953
     14 C10         3.4716    0.1732   -2.1471 C.ar      1 <0>        -0.0721
     15 C11         3.5659   -1.1027   -2.6804 C.ar      1 <0>        -0.1606
     16 C12         2.6380   -2.0656   -2.3499 C.ar      1 <0>        -0.0816
     17 C13         1.5954   -1.7570   -1.4722 C.ar      1 <0>        -0.1705
     18 C14         0.5985   -2.7827   -1.1147 C.2       1 <0>         0.3627
     19 O3         -0.3075   -2.5098   -0.3508 O.2       1 <0>        -0.3902
     20 N2          0.6914   -4.0227   -1.6344 N.am      1 <0>        -0.4236
     21 C15        -0.2297    3.7666   -4.7416 C.3       1 <0>        -0.0293
     22 C16        -0.9813    3.7665   -6.0743 C.3       1 <0>        -0.2045
     23 C17        -0.3414    5.1479   -4.0933 C.3       1 <0>        -0.1997
     24 C18         1.2439    3.4362   -4.9872 C.3       1 <0>        -0.1992
     25 H1         -3.3851    0.2324   -0.7007 H         1 <0>         0.1123
     26 H2         -2.8704   -1.0555   -1.8164 H         1 <0>         0.0904
     27 H3         -1.7866   -0.5264   -0.5074 H         1 <0>         0.0980
     28 H4         -3.2855    0.4195   -3.7493 H         1 <0>         0.1359
     29 H5         -2.3030    2.1098   -5.2459 H         1 <0>         0.1386
     30 H6          0.5142    3.1529   -2.2186 H         1 <0>         0.1535
     31 H7          0.1496   -0.8049    0.5728 H         1 <0>         0.2838
     32 H8          2.3763    1.4928   -0.8753 H         1 <0>         0.1891
     33 H9          4.2037    0.9213   -2.4130 H         1 <0>         0.1386
     34 H10         4.3710   -1.3431   -3.3589 H         1 <0>         0.1341
     35 H11         2.7159   -3.0580   -2.7690 H         1 <0>         0.1254
     36 H12         1.4140   -4.2404   -2.2437 H         1 <0>         0.2184
     37 H13         0.0355   -4.6976   -1.3991 H         1 <0>         0.2327
     38 H14        -2.0311    4.0019   -5.8993 H         1 <0>         0.0775
     39 H15        -0.5466    4.5150   -6.7367 H         1 <0>         0.0781
     40 H16        -0.9017    2.7824   -6.5362 H         1 <0>         0.0756
     41 H17         0.1941    5.1480   -3.1438 H         1 <0>         0.0797
     42 H18         0.0933    5.8965   -4.7557 H         1 <0>         0.0762
     43 H19        -1.3912    5.3833   -3.9183 H         1 <0>         0.0801
     44 H20         1.3235    2.4521   -5.4491 H         1 <0>         0.0774
     45 H21         1.6786    4.1847   -5.6496 H         1 <0>         0.0764
     46 H22         1.7794    3.4363   -4.0378 H         1 <0>         0.0773
@<TRIPOS>BOND
     1    1    2 1
     2    1   25 1
     3    1   26 1
     4    1   27 1
     5    2    7 ar
     6    2    3 ar
     7    3    4 ar
     8    3   28 1
     9    4    5 ar
    10    4   29 1
    11    5    6 ar
    12    5   21 1
    13    6    7 ar
    14    6   30 1
    15    7    8 1
    16    8    9 2
    17    8   10 2
    18    8   11 1
    19   11   12 1
    20   11   31 1
    21   12   17 ar
    22   12   13 ar
    23   13   14 ar
    24   13   32 1
    25   14   15 ar
    26   14   33 1
    27   15   16 ar
    28   15   34 1
    29   16   17 ar
    30   16   35 1
    31   17   18 1
    32   18   19 2
    33   18   20 am
    34   20   36 1
    35   20   37 1
    36   21   22 1
    37   21   23 1
    38   21   24 1
    39   22   38 1
    40   22   39 1
    41   22   40 1
    42   23   41 1
    43   23   42 1
    44   23   43 1
    45   24   44 1
    46   24   45 1
    47   24   46 1
@<TRIPOS>MOLECULE
ZINC03303856
   41    43     0     0     0
SMALL
USER_CHARGES

@<TRIPOS>ATOM
      1 C1          4.3937    8.2166    5.8353 C.3       1 <0>        -0.2149
      2 C2          3.5281    7.4311    4.8481 C.3       1 <0>        -0.0052
      3 O1          3.9029    7.7822    3.4900 O.3       1 <0>        -0.2509
      4 C3          3.2303    7.1732    2.4923 C.2       1 <0>         0.3851
      5 O2          2.3544    6.3706    2.7510 O.2       1 <0>        -0.3377
      6 C4          3.5557    7.4792    1.0938 C.2       1 <0>        -0.0201
      7 C5          2.9468    6.9290    0.0106 C.2       1 <0>        -0.0821
      8 C6          3.5853    7.5281   -1.1604 C.ar      1 <0>        -0.1260
      9 C7          3.4145    7.3896   -2.5402 C.ar      1 <0>        -0.0677
     10 C8          4.1947    8.1153   -3.3953 C.ar      1 <0>        -0.1462
     11 C9          5.1557    8.9876   -2.9021 C.ar      1 <0>        -0.0921
     12 C10         5.3402    9.1383   -1.5449 C.ar      1 <0>        -0.1189
     13 C11         4.5580    8.4109   -0.6550 C.ar      1 <0>         0.0451
     14 O3          4.5071    8.3470    0.6896 O.3       1 <0>        -0.0529
     15 C12         1.8344    5.9124    0.0154 C.3       1 <0>        -0.2045
     16 S1          2.5401    4.2457    0.0007 S.3       1 <0>         0.2796
     17 C13         1.0616    3.2873    0.0091 C.2       1 <0>        -0.0669
     18 N1         -0.1142    3.8930    0.0231 N.2       1 <0>        -0.1603
     19 N2         -1.2187    3.2365    0.0301 N.2       1 <0>         0.0032
     20 C14        -1.2352    1.9242    0.0182 C.2       1 <0>        -0.1610
     21 C15        -0.0145    1.2154    0.0087 C.2       1 <0>         0.2823
     22 O4          0.0021   -0.0041    0.0020 O.2       1 <0>        -0.3555
     23 N3          1.1366    1.9263    0.0016 N.am      1 <0>        -0.1501
     24 N4          2.3474    1.2940   -0.0134 N.3       1 <0>        -0.2281
     25 C16        -2.5459    1.1805    0.0208 C.3       1 <0>        -0.1440
     26 H1          5.4433    7.9714    5.6732 H         1 <0>         0.0888
     27 H2          4.2421    9.2850    5.6812 H         1 <0>         0.0886
     28 H3          4.1122    7.9530    6.8549 H         1 <0>         0.0918
     29 H4          2.4784    7.6763    5.0102 H         1 <0>         0.0916
     30 H5          3.6796    6.3627    5.0022 H         1 <0>         0.0927
     31 H6          2.6688    6.7120   -2.9291 H         1 <0>         0.1386
     32 H7          4.0633    8.0094   -4.4620 H         1 <0>         0.1383
     33 H8          5.7657    9.5543   -3.5900 H         1 <0>         0.1413
     34 H9          6.0912    9.8197   -1.1732 H         1 <0>         0.1458
     35 H10         1.2116    6.0511   -0.8683 H         1 <0>         0.1298
     36 H11         1.2275    6.0421    0.9116 H         1 <0>         0.1638
     37 H12         2.2319    0.2917   -0.0177 H         1 <0>         0.2085
     38 H13         2.9040    1.5972   -0.7985 H         1 <0>         0.1693
     39 H14        -2.8569    0.9959    1.0490 H         1 <0>         0.0992
     40 H15        -3.3036    1.7778   -0.4864 H         1 <0>         0.0983
     41 H16        -2.4252    0.2297   -0.4985 H         1 <0>         0.1035
@<TRIPOS>BOND
     1    1    2 1
     2    1   26 1
     3    1   27 1
     4    1   28 1
     5    2    3 1
     6    2   29 1
     7    2   30 1
     8    3    4 1
     9    4    5 2
    10    4    6 1
    11    6   14 1
    12    6    7 2
    13    7    8 1
    14    7   15 1
    15    8   13 ar
    16    8    9 ar
    17    9   10 ar
    18    9   31 1
    19   10   11 ar
    20   10   32 1
    21   11   12 ar
    22   11   33 1
    23   12   13 ar
    24   12   34 1
    25   13   14 1
    26   15   16 1
    27   15   35 1
    28   15   36 1
    29   16   17 1
    30   17   23 1
    31   17   18 2
    32   18   19 1
    33   19   20 2
    34   20   21 1
    35   20   25 1
    36   21   22 2
    37   21   23 am
    38   23   24 1
    39   24   37 1
    40   24   38 1
    41   25   39 1
    42   25   40 1
    43   25   41 1
@<TRIPOS>MOLECULE
ZINC03310261
   41    43     0     0     0
SMALL
USER_CHARGES

@<TRIPOS>ATOM
      1 C1         -1.5262   -1.1440   -5.5413 C.3       1 <0>        -0.1414
      2 C2         -1.5093   -0.0246   -4.5325 C.2       1 <0>        -0.1592
      3 C3         -1.5791    1.3192   -4.9589 C.2       1 <0>         0.2819
      4 O1         -1.6547    1.5975   -6.1439 O.2       1 <0>        -0.3530
      5 N1         -1.5655    2.2897   -4.0164 N.am      1 <0>        -0.1489
      6 C4         -1.4752    1.9240   -2.7063 C.2       1 <0>        -0.0742
      7 N2         -1.4127    0.6461   -2.3706 N.2       1 <0>        -0.1610
      8 N3         -1.4292   -0.2907   -3.2498 N.2       1 <0>        -0.0012
      9 S1         -1.4489    3.1610   -1.4518 S.3       1 <0>         0.3252
     10 C5         -1.3319    2.1138    0.0199 C.3       1 <0>        -0.2140
     11 H1         -2.0831    1.4537    0.0199 H         1 <0>         0.1337
     12 C6         -0.0167    1.3781    0.0096 C.ar      1 <0>        -0.0942
     13 C7          1.1709    2.0855    0.0021 C.ar      1 <0>        -0.1065
     14 C8          2.3773    1.4107   -0.0145 C.ar      1 <0>        -0.1318
     15 C9          2.3960    0.0285   -0.0212 C.ar      1 <0>        -0.1146
     16 C10         1.2084   -0.6789   -0.0132 C.ar      1 <0>        -0.1315
     17 C11         0.0021   -0.0041    0.0020 C.ar      1 <0>        -0.0771
     18 C12        -1.4176    2.9723    1.2554 C.2       1 <0>         0.2914
     19 O2         -1.0952    4.1402    1.2058 O.2       1 <0>        -0.2763
     20 C13        -1.8927    2.3933    2.5223 C.ar      1 <0>        -0.1540
     21 C14        -2.2709    1.0483    2.5822 C.ar      1 <0>        -0.0841
     22 C15        -2.7099    0.5118    3.7742 C.ar      1 <0>        -0.1412
     23 C16        -2.7872    1.3036    4.9067 C.ar      1 <0>        -0.0937
     24 C17        -2.4197    2.6369    4.8542 C.ar      1 <0>        -0.1432
     25 C18        -1.9737    3.1868    3.6711 C.ar      1 <0>        -0.0626
     26 N4         -1.6361    3.6072   -4.3700 N.3       1 <0>        -0.2284
     27 H2         -1.4644   -2.1010   -5.0233 H         1 <0>         0.0993
     28 H3         -2.4514   -1.1012   -6.1161 H         1 <0>         0.0980
     29 H4         -0.6752   -1.0395   -6.2143 H         1 <0>         0.1014
     30 H5          1.1563    3.1654    0.0081 H         1 <0>         0.1463
     31 H6          3.3051    1.9634   -0.0205 H         1 <0>         0.1334
     32 H7          3.3385   -0.4987   -0.0324 H         1 <0>         0.1300
     33 H8          1.2231   -1.7588   -0.0184 H         1 <0>         0.1335
     34 H9         -0.9258   -0.5567    0.0083 H         1 <0>         0.1388
     35 H10        -2.2154    0.4303    1.6982 H         1 <0>         0.1390
     36 H11        -2.9988   -0.5277    3.8230 H         1 <0>         0.1363
     37 H12        -3.1365    0.8789    5.8362 H         1 <0>         0.1338
     38 H13        -2.4828    3.2483    5.7423 H         1 <0>         0.1375
     39 H14        -1.6879    4.2276    3.6315 H         1 <0>         0.1529
     40 H15        -1.6984    3.7099   -5.3718 H         1 <0>         0.2094
     41 H16        -2.4098    4.0640   -3.9108 H         1 <0>         0.1703
@<TRIPOS>BOND
     1    1    2 1
     2    1   27 1
     3    1   28 1
     4    1   29 1
     5    2    8 2
     6    2    3 1
     7    3    4 2
     8    3    5 am
     9    5    6 1
    10    5   26 1
    11    6    7 2
    12    6    9 1
    13    7    8 1
    14    9   10 1
    15   10   11 1
    16   10   12 1
    17   10   18 1
    18   12   17 ar
    19   12   13 ar
    20   13   14 ar
    21   13   30 1
    22   14   15 ar
    23   14   31 1
    24   15   16 ar
    25   15   32 1
    26   16   17 ar
    27   16   33 1
    28   17   34 1
    29   18   19 2
    30   18   20 1
    31   20   25 ar
    32   20   21 ar
    33   21   22 ar
    34   21   35 1
    35   22   23 ar
    36   22   36 1
    37   23   24 ar
    38   23   37 1
    39   24   25 ar
    40   24   38 1
    41   25   39 1
    42   26   40 1
    43   26   41 1
@<TRIPOS>MOLECULE
ZINC03310264
   41    43     0     0     0
SMALL
USER_CHARGES

@<TRIPOS>ATOM
      1 C1         -1.7282    2.0645    5.5738 C.3       1 <0>        -0.1443
      2 C2         -0.7577    2.6220    4.5646 C.2       1 <0>        -0.1589
      3 C3          0.3742    3.3492    4.9918 C.2       1 <0>         0.2822
      4 O1          0.5861    3.5393    6.1777 O.2       1 <0>        -0.3538
      5 N1          1.2174    3.8298    4.0492 N.am      1 <0>        -0.1484
      6 C4          0.9336    3.5892    2.7378 C.2       1 <0>        -0.0745
      7 N2         -0.1471    2.9047    2.4013 N.2       1 <0>        -0.1613
      8 N3         -0.9573    2.4352    3.2809 N.2       1 <0>        -0.0014
      9 S1          2.0093    4.1997    1.4829 S.3       1 <0>         0.3273
     10 C5          1.1505    3.5924    0.0099 C.3       1 <0>        -0.2147
     11 H1          0.2033    3.9129    0.0204 H         1 <0>         0.1370
     12 C6          1.1709    2.0855    0.0021 C.ar      1 <0>        -0.0947
     13 C7         -0.0167    1.3781    0.0096 C.ar      1 <0>        -0.0761
     14 C8          0.0021   -0.0041    0.0020 C.ar      1 <0>        -0.1305
     15 C9          1.2084   -0.6789   -0.0136 C.ar      1 <0>        -0.1155
     16 C10         2.3961    0.0285   -0.0212 C.ar      1 <0>        -0.1331
     17 C11         2.3773    1.4107   -0.0136 C.ar      1 <0>        -0.1122
     18 C12         1.8425    4.1106   -1.2245 C.2       1 <0>         0.2932
     19 O2          3.0154    4.4146   -1.1795 O.2       1 <0>        -0.2779
     20 C13         1.0946    4.2475   -2.4845 C.ar      1 <0>        -0.1539
     21 C14        -0.2568    3.8924   -2.5420 C.ar      1 <0>        -0.0836
     22 C15        -0.9517    4.0273   -3.7253 C.ar      1 <0>        -0.1411
     23 C16        -0.3127    4.5040   -4.8567 C.ar      1 <0>        -0.0934
     24 C17         1.0258    4.8531   -4.8092 C.ar      1 <0>        -0.1433
     25 C18         1.7332    4.7280   -3.6322 C.ar      1 <0>        -0.0623
     26 N4          2.3285    4.5410    4.4038 N.3       1 <0>        -0.2292
     27 H2         -2.5060    2.8011    5.7752 H         1 <0>         0.0985
     28 H3         -2.1821    1.1559    5.1780 H         1 <0>         0.0981
     29 H4         -1.1986    1.8333    6.4980 H         1 <0>         0.1048
     30 H5         -0.9592    1.9054    0.0170 H         1 <0>         0.1410
     31 H6         -0.9258   -0.5567    0.0079 H         1 <0>         0.1345
     32 H7          1.2231   -1.7588   -0.0196 H         1 <0>         0.1304
     33 H8          3.3386   -0.4987   -0.0327 H         1 <0>         0.1326
     34 H9          3.3052    1.9634   -0.0192 H         1 <0>         0.1441
     35 H10        -0.7558    3.5167   -1.6609 H         1 <0>         0.1390
     36 H11        -1.9962    3.7567   -3.7704 H         1 <0>         0.1364
     37 H12        -0.8613    4.6039   -5.7816 H         1 <0>         0.1338
     38 H13         1.5175    5.2240   -5.6963 H         1 <0>         0.1375
     39 H14         2.7778    5.0001   -3.5969 H         1 <0>         0.1527
     40 H15         2.3953    4.6312    5.4065 H         1 <0>         0.2093
     41 H16         3.1631    4.1219    4.0221 H         1 <0>         0.1719
@<TRIPOS>BOND
     1    1    2 1
     2    1   27 1
     3    1   28 1
     4    1   29 1
     5    2    8 2
     6    2    3 1
     7    3    4 2
     8    3    5 am
     9    5    6 1
    10    5   26 1
    11    6    7 2
    12    6    9 1
    13    7    8 1
    14    9   10 1
    15   10   11 1
    16   10   12 1
    17   10   18 1
    18   12   17 ar
    19   12   13 ar
    20   13   14 ar
    21   13   30 1
    22   14   15 ar
    23   14   31 1
    24   15   16 ar
    25   15   32 1
    26   16   17 ar
    27   16   33 1
    28   17   34 1
    29   18   19 2
    30   18   20 1
    31   20   25 ar
    32   20   21 ar
    33   21   22 ar
    34   21   35 1
    35   22   23 ar
    36   22   36 1
    37   23   24 ar
    38   23   37 1
    39   24   25 ar
    40   24   38 1
    41   25   39 1
    42   26   40 1
    43   26   41 1
@<TRIPOS>MOLECULE
ZINC03310584
   38    39     0     0     0
SMALL
USER_CHARGES

@<TRIPOS>ATOM
      1 C1          3.6477   -0.5758   -0.1094 C.3       1 <0>        -0.1691
      2 C2          2.3257    0.1105    0.1193 C.ar      1 <0>         0.0577
      3 C3          1.1675   -0.6340    0.2805 C.ar      1 <0>        -0.2620
      4 C4         -0.0277    0.0364    0.4892 C.ar      1 <0>         0.0603
      5 N1         -0.0279    1.3584    0.5282 N.ar      1 <0>        -0.1988
      6 C5          1.0974    2.0409    0.3703 C.ar      1 <0>        -0.0772
      7 N2          2.2566    1.4303    0.1691 N.ar      1 <0>        -0.2517
      8 S1          1.0513    3.8013    0.4294 S.3       1 <0>         0.3567
      9 C6          2.8031    4.1708    0.1633 C.3       1 <0>        -0.3234
     10 C7          3.0090    5.6636    0.1747 C.2       1 <0>         0.3155
     11 O1          2.0644    6.4047    0.3459 O.2       1 <0>        -0.3358
     12 N3          4.2429    6.1751   -0.0053 N.am      1 <0>        -0.3230
     13 C8          4.4180    7.5548   -0.1048 C.ar      1 <0>         0.0867
     14 C9          3.4362    8.3377   -0.7041 C.ar      1 <0>        -0.1385
     15 C10         3.6038    9.7008   -0.7996 C.ar      1 <0>        -0.0854
     16 C11         4.7664   10.2967   -0.3034 C.ar      1 <0>        -0.1485
     17 C12         5.7529    9.5069    0.2932 C.ar      1 <0>        -0.0466
     18 C13         5.5766    8.1450    0.3902 C.ar      1 <0>        -0.1742
     19 C14         4.9517   11.7572   -0.4087 C.2       1 <0>         0.3518
     20 O2          5.9635   12.2744    0.0238 O.2       1 <0>        -0.3723
     21 N4          3.9994   12.5176   -0.9844 N.am      1 <0>        -0.4284
     22 C15        -1.3115   -0.7320    0.6701 C.3       1 <0>        -0.1691
     23 H1          3.8063   -0.7117   -1.1792 H         1 <0>         0.0987
     24 H2          4.4506    0.0359    0.3020 H         1 <0>         0.0996
     25 H3          3.6425   -1.5480    0.3835 H         1 <0>         0.0902
     26 H4          1.1958   -1.7130    0.2439 H         1 <0>         0.1464
     27 H5          3.3950    3.7163    0.9578 H         1 <0>         0.1358
     28 H6          3.1171    3.7680   -0.7996 H         1 <0>         0.1363
     29 H7          5.0091    5.5833   -0.0656 H         1 <0>         0.2371
     30 H8          2.5398    7.8760   -1.0910 H         1 <0>         0.1630
     31 H9          2.8395   10.3084   -1.2612 H         1 <0>         0.1296
     32 H10         6.6523    9.9644    0.6779 H         1 <0>         0.1600
     33 H11         6.3385    7.5340    0.8515 H         1 <0>         0.1359
     34 H12         3.1921   12.1050   -1.3294 H         1 <0>         0.2163
     35 H13         4.1212   13.4774   -1.0536 H         1 <0>         0.2312
     36 H14        -1.7818   -0.8874   -0.3009 H         1 <0>         0.1001
     37 H15        -1.0957   -1.6974    1.1279 H         1 <0>         0.0878
     38 H16        -1.9854   -0.1670    1.3140 H         1 <0>         0.1071
@<TRIPOS>BOND
     1    1    2 1
     2    1   23 1
     3    1   24 1
     4    1   25 1
     5    2    7 ar
     6    2    3 ar
     7    3    4 ar
     8    3   26 1
     9    4    5 ar
    10    4   22 1
    11    5    6 ar
    12    6    7 ar
    13    6    8 1
    14    8    9 1
    15    9   10 1
    16    9   27 1
    17    9   28 1
    18   10   11 2
    19   10   12 am
    20   12   13 1
    21   12   29 1
    22   13   18 ar
    23   13   14 ar
    24   14   15 ar
    25   14   30 1
    26   15   16 ar
    27   15   31 1
    28   16   17 ar
    29   16   19 1
    30   17   18 ar
    31   17   32 1
    32   18   33 1
    33   19   20 2
    34   19   21 am
    35   21   34 1
    36   21   35 1
    37   22   36 1
    38   22   37 1
    39   22   38 1
@<TRIPOS>MOLECULE
ZINC03310808
   38    40     0     0     0
SMALL
USER_CHARGES

@<TRIPOS>ATOM
      1 C1         -2.3412   -0.2151    0.6300 C.3       1 <0>        -0.1462
      2 C2         -0.9633   -0.8076    0.4833 C.2       1 <0>        -0.0084
      3 C3          0.1513   -0.0129    0.5135 C.2       1 <0>        -0.2947
      4 S1          1.4362   -1.2374    0.3061 S.3       1 <0>         0.3170
      5 C4          0.4061   -2.6309    0.1959 C.2       1 <0>        -0.0433
      6 N1         -0.7982   -2.1019    0.3182 N.2       1 <0>        -0.2539
      7 N2          0.7576   -3.9592    0.0231 N.pl3     1 <0>        -0.2484
      8 C5         -0.2215   -4.9546    0.0831 C.ar      1 <0>         0.1337
      9 C6         -1.3800   -4.7480    0.8213 C.ar      1 <0>        -0.1664
     10 C7         -2.3483   -5.7313    0.8733 C.ar      1 <0>        -0.0036
     11 C8         -2.1601   -6.9254    0.2017 C.ar      1 <0>        -0.7903
     12 C9         -1.0054   -7.1367   -0.5294 C.ar      1 <0>        -0.0019
     13 C10        -0.0358   -6.1552   -0.5907 C.ar      1 <0>        -0.1991
     14 S2         -3.3945   -8.1805    0.2773 S.o2      1 <0>         2.7644
     15 O1         -4.6201   -7.5270    0.5776 O.2       1 <0>        -0.9180
     16 O2         -3.2250   -8.9871   -0.8802 O.2       1 <0>        -0.9203
     17 N3         -3.0383   -9.1399    1.5791 N.pl3     1 <0>        -0.9321
     18 C11         0.2615    1.4514    0.6784 C.ar      1 <0>         0.0091
     19 C12        -0.5175    2.3057   -0.1042 C.ar      1 <0>        -0.1093
     20 C13        -0.4139    3.6716    0.0589 C.ar      1 <0>        -0.1284
     21 C14         0.4680    4.1957    0.9874 C.ar      1 <0>        -0.1222
     22 C15         1.2472    3.3548    1.7622 C.ar      1 <0>        -0.1279
     23 C16         1.1493    1.9869    1.6133 C.ar      1 <0>        -0.1130
     24 H1         -2.7454    0.0133   -0.3561 H         1 <0>         0.0918
     25 H2         -2.9924   -0.9300    1.1329 H         1 <0>         0.0969
     26 H3         -2.2823    0.6998    1.2195 H         1 <0>         0.0919
     27 H4          1.6834   -4.1987   -0.1395 H         1 <0>         0.2580
     28 H5         -1.5254   -3.8176    1.3502 H         1 <0>         0.1755
     29 H6         -3.2515   -5.5693    1.4428 H         1 <0>         0.1563
     30 H7         -0.8618   -8.0701   -1.0533 H         1 <0>         0.1544
     31 H8          0.8655   -6.3206   -1.1622 H         1 <0>         0.1366
     32 H9         -2.2619   -8.9453    2.1271 H         1 <0>         0.2289
     33 H10        -3.6059   -9.8967    1.7937 H         1 <0>         0.2426
     34 H11        -1.2027    1.8981   -0.8327 H         1 <0>         0.1379
     35 H12        -1.0190    4.3335   -0.5429 H         1 <0>         0.1331
     36 H13         0.5483    5.2659    1.1082 H         1 <0>         0.1309
     37 H14         1.9333    3.7703    2.4854 H         1 <0>         0.1325
     38 H15         1.7578    1.3316    2.2190 H         1 <0>         0.1359
@<TRIPOS>BOND
     1    1    2 1
     2    1   24 1
     3    1   25 1
     4    1   26 1
     5    2    6 1
     6    2    3 2
     7    3    4 1
     8    3   18 1
     9    4    5 1
    10    5    6 2
    11    5    7 1
    12    7    8 1
    13    7   27 1
    14    8   13 ar
    15    8    9 ar
    16    9   10 ar
    17    9   28 1
    18   10   11 ar
    19   10   29 1
    20   11   12 ar
    21   11   14 1
    22   12   13 ar
    23   12   30 1
    24   13   31 1
    25   14   15 2
    26   14   16 2
    27   14   17 1
    28   17   32 1
    29   17   33 1
    30   18   23 ar
    31   18   19 ar
    32   19   20 ar
    33   19   34 1
    34   20   21 ar
    35   20   35 1
    36   21   22 ar
    37   21   36 1
    38   22   23 ar
    39   22   37 1
    40   23   38 1
@<TRIPOS>MOLECULE
ZINC03311553
   43    44     0     0     0
SMALL
USER_CHARGES

@<TRIPOS>ATOM
      1 C1         -0.0389   -0.0917    0.7982 C.3       1 <0>        -0.2384
      2 C2         -0.0884    1.4021    0.6057 C.2       1 <0>         0.3000
      3 O1          0.7446    1.9528   -0.0826 O.2       1 <0>        -0.3450
      4 N1         -1.0616    2.1255    1.1940 N.am      1 <0>        -0.3307
      5 C3         -1.0491    3.5165    1.1012 C.ar      1 <0>         0.0984
      6 C4          0.1630    4.1994    1.0740 C.ar      1 <0>        -0.1484
      7 C5          0.1792    5.5723    0.9768 C.ar      1 <0>        -0.0534
      8 C6         -1.0242    6.2814    0.9164 C.ar      1 <0>        -0.1383
      9 C7         -2.2402    5.5923    0.9497 C.ar      1 <0>        -0.0447
     10 C8         -2.2488    4.2189    1.0418 C.ar      1 <0>        -0.1848
     11 C9         -1.0110    7.7526    0.8173 C.2       1 <0>         0.3560
     12 O2         -2.0577    8.3674    0.7646 O.2       1 <0>        -0.3718
     13 O3          0.1619    8.4152    0.7853 O.3       1 <0>        -0.2336
     14 C10         0.0989    9.8625    0.6871 C.3       1 <0>        -0.0251
     15 C11         1.4965   10.4257    0.6642 C.2       1 <0>         0.2957
     16 O4          2.4517    9.6807    0.7248 O.2       1 <0>        -0.3259
     17 N2          1.6851   11.7574    0.5764 N.am      1 <0>        -0.3262
     18 C12         2.9808   12.2743    0.4456 C.ar      1 <0>         0.0241
     19 C13         3.3009   13.4988    1.0166 C.ar      1 <0>        -0.1208
     20 C14         4.5795   14.0052    0.8918 C.ar      1 <0>        -0.2050
     21 C15         5.5409   13.2963    0.1863 C.ar      1 <0>         0.0831
     22 C16         5.2202   12.0754   -0.3889 C.ar      1 <0>        -0.1404
     23 C17         3.9436   11.5651   -0.2599 C.ar      1 <0>        -0.0890
     24 O5          6.7981   13.7982    0.0590 O.3       1 <0>        -0.2111
     25 C18         7.0584   15.0603    0.6765 C.3       1 <0>        -0.0627
     26 H1          0.5718   -0.3257    1.6702 H         1 <0>         0.1089
     27 H2         -1.0491   -0.4722    0.9494 H         1 <0>         0.0839
     28 H3          0.3963   -0.5577   -0.0859 H         1 <0>         0.1202
     29 H4         -1.7707    1.6783    1.6819 H         1 <0>         0.2345
     30 H5          1.0922    3.6513    1.1248 H         1 <0>         0.1663
     31 H6          1.1204    6.1014    0.9509 H         1 <0>         0.1617
     32 H7         -3.1717    6.1368    0.9029 H         1 <0>         0.1553
     33 H8         -3.1877    3.6859    1.0676 H         1 <0>         0.1360
     34 H9         -0.4205   10.1422   -0.2295 H         1 <0>         0.1103
     35 H10        -0.4397   10.2620    1.5463 H         1 <0>         0.1081
     36 H11         0.9238   12.3579    0.6038 H         1 <0>         0.2307
     37 H12         2.5513   14.0530    1.5618 H         1 <0>         0.1294
     38 H13         4.8300   14.9554    1.3399 H         1 <0>         0.1366
     39 H14         5.9691   11.5240   -0.9380 H         1 <0>         0.1491
     40 H15         3.6942   10.6143   -0.7075 H         1 <0>         0.1649
     41 H16         6.3971   15.8158    0.2522 H         1 <0>         0.0662
     42 H17         6.8811   14.9834    1.7492 H         1 <0>         0.0679
     43 H18         8.0957   15.3445    0.4992 H         1 <0>         0.1080
@<TRIPOS>BOND
     1    1    2 1
     2    1   26 1
     3    1   27 1
     4    1   28 1
     5    2    3 2
     6    2    4 am
     7    4    5 1
     8    4   29 1
     9    5   10 ar
    10    5    6 ar
    11    6    7 ar
    12    6   30 1
    13    7    8 ar
    14    7   31 1
    15    8    9 ar
    16    8   11 1
    17    9   10 ar
    18    9   32 1
    19   10   33 1
    20   11   12 2
    21   11   13 1
    22   13   14 1
    23   14   15 1
    24   14   34 1
    25   14   35 1
    26   15   16 2
    27   15   17 am
    28   17   18 1
    29   17   36 1
    30   18   23 ar
    31   18   19 ar
    32   19   20 ar
    33   19   37 1
    34   20   21 ar
    35   20   38 1
    36   21   22 ar
    37   21   24 1
    38   22   23 ar
    39   22   39 1
    40   23   40 1
    41   24   25 1
    42   25   41 1
    43   25   42 1
    44   25   43 1
@<TRIPOS>MOLECULE
ZINC03312328
   45    48     0     0     0
SMALL
USER_CHARGES

@<TRIPOS>ATOM
      1 C1         -2.3082    4.3252   -8.2031 C.ar      1 <0>        -0.1243
      2 C2         -1.2064    4.5495   -7.3989 C.ar      1 <0>        -0.1244
      3 C3         -1.0239    3.8000   -6.2518 C.ar      1 <0>        -0.1287
      4 C4         -1.9433    2.8262   -5.9089 C.ar      1 <0>        -0.0887
      5 C5         -3.0423    2.5984   -6.7158 C.ar      1 <0>        -0.1211
      6 C6         -3.2275    3.3515   -7.8602 C.ar      1 <0>        -0.1230
      7 C7         -1.7441    2.0089   -4.6586 C.3       1 <0>        -0.1247
      8 C8         -2.4261    2.7059   -3.4796 C.3       1 <0>        -0.0163
      9 H1         -3.4633    2.9401   -3.7190 H         1 <0>         0.1346
     10 C9         -2.3473    1.8462   -2.2337 C.2       1 <0>         0.3077
     11 O1         -2.8170    0.7396   -2.0767 O.2       1 <0>        -0.3013
     12 N1         -1.6472    2.5681   -1.3365 N.am      1 <0>        -0.3229
     13 C10        -1.2808    3.7542   -1.8355 C.2       1 <0>         0.3998
     14 O2         -0.6444    4.5816   -1.2130 O.2       1 <0>        -0.3602
     15 N2         -1.6924    3.9270   -3.1046 N.am      1 <0>        -0.3987
     16 C11        -1.3318    2.1130    0.0198 C.3       1 <0>         0.0555
     17 C12        -0.0167    1.3771    0.0096 C.ar      1 <0>        -0.1551
     18 C13         0.0021   -0.0041    0.0020 C.ar      1 <0>        -0.0161
     19 C14         1.2081   -0.6796   -0.0131 C.ar      1 <0>        -0.1530
     20 C15         2.3975    0.0254   -0.0200 C.ar      1 <0>        -0.0209
     21 C16         2.3842    1.4074   -0.0107 C.ar      1 <0>        -0.2133
     22 C17         1.1760    2.0872    0.0020 C.ar      1 <0>         0.1657
     23 O3          1.1481    3.4466    0.0032 O.3       1 <0>        -0.1855
     24 C18         2.3600    4.1172    0.3609 C.3       1 <0>         0.1124
     25 O4          3.4415    3.5285   -0.3714 O.3       1 <0>        -0.2788
     26 C19         3.6871    2.1662   -0.0096 C.3       1 <0>         0.0300
     27 N3          1.2262   -2.1595   -0.0223 N.pl3     1 <0>         0.5541
     28 O5          0.1790   -2.7814   -0.0166 O.2       1 <0>        -0.3529
     29 O6          2.2884   -2.7555   -0.0357 O.3       1 <0>        -0.3617
     30 H2         -2.4505    4.9105   -9.0995 H         1 <0>         0.1323
     31 H3         -0.4880    5.3100   -7.6670 H         1 <0>         0.1330
     32 H4         -0.1630    3.9749   -5.6237 H         1 <0>         0.1334
     33 H5         -3.7582    1.8347   -6.4502 H         1 <0>         0.1338
     34 H6         -4.0881    3.1760   -8.4887 H         1 <0>         0.1333
     35 H7         -0.6779    1.9102   -4.4550 H         1 <0>         0.1064
     36 H8         -2.1805    1.0198   -4.7977 H         1 <0>         0.1170
     37 H9         -1.5394    4.7056   -3.6625 H         1 <0>         0.2790
     38 H10        -2.1187    1.4457    0.3714 H         1 <0>         0.1178
     39 H11        -1.2613    2.9738    0.6848 H         1 <0>         0.1316
     40 H12        -0.9259   -0.5565    0.0082 H         1 <0>         0.1789
     41 H13         3.3384   -0.5047   -0.0325 H         1 <0>         0.1666
     42 H14         2.2808    5.1748    0.1096 H         1 <0>         0.1607
     43 H15         2.5367    4.0075    1.4309 H         1 <0>         0.0718
     44 H16         4.1295    2.1282    0.9858 H         1 <0>         0.0861
     45 H17         4.3708    1.7162   -0.7295 H         1 <0>         0.1298
@<TRIPOS>BOND
     1    1    6 ar
     2    1    2 ar
     3    1   30 1
     4    2    3 ar
     5    2   31 1
     6    3    4 ar
     7    3   32 1
     8    4    5 ar
     9    4    7 1
    10    5    6 ar
    11    5   33 1
    12    6   34 1
    13    7    8 1
    14    7   35 1
    15    7   36 1
    16    8    9 1
    17    8   15 1
    18    8   10 1
    19   10   11 2
    20   10   12 am
    21   12   13 am
    22   12   16 1
    23   13   14 2
    24   13   15 am
    25   15   37 1
    26   16   17 1
    27   16   38 1
    28   16   39 1
    29   17   22 ar
    30   17   18 ar
    31   18   19 ar
    32   18   40 1
    33   19   20 ar
    34   19   27 1
    35   20   21 ar
    36   20   41 1
    37   21   26 1
    38   21   22 ar
    39   22   23 1
    40   23   24 1
    41   24   25 1
    42   24   42 1
    43   24   43 1
    44   25   26 1
    45   26   44 1
    46   26   45 1
    47   27   28 2
    48   27   29 1
@<TRIPOS>MOLECULE
ZINC03315424
   36    37     0     0     0
SMALL
USER_CHARGES

@<TRIPOS>ATOM
      1 C1          3.6494    1.3624   -0.5138 C.3       1 <0>        -0.1740
      2 C2          2.1857    1.0327   -0.6552 C.2       1 <0>        -0.0256
      3 C3          1.2452    2.0143   -0.8405 C.2       1 <0>        -0.2029
      4 C4         -0.0629    1.6658   -0.9625 C.2       1 <0>        -0.3230
      5 S1         -0.0273   -0.0617   -0.8218 S.3       1 <0>         0.4671
      6 C5          1.7303   -0.2765   -0.6037 C.2       1 <0>        -0.3507
      7 C6          2.4930   -1.5123   -0.4187 C.2       1 <0>         0.4014
      8 O1          3.7010   -1.4670   -0.2845 O.2       1 <0>        -0.3625
      9 O2          1.8560   -2.7012   -0.3969 O.3       1 <0>        -0.2318
     10 C7          2.6758   -3.8849   -0.2095 C.3       1 <0>        -0.0233
     11 C8          1.7977   -5.1097   -0.2125 C.2       1 <0>         0.2966
     12 O3          0.5991   -4.9961   -0.3582 O.2       1 <0>        -0.3180
     13 N1          2.3444   -6.3312   -0.0532 N.am      1 <0>        -0.3281
     14 C9          1.5241   -7.4536    0.0544 C.ar      1 <0>         0.0883
     15 C10         0.2856   -7.3507    0.6801 C.ar      1 <0>        -0.1389
     16 C11        -0.5289   -8.4558    0.7837 C.ar      1 <0>        -0.0855
     17 C12        -0.1059   -9.6843    0.2691 C.ar      1 <0>        -0.1480
     18 C13         1.1409   -9.7854   -0.3540 C.ar      1 <0>        -0.0462
     19 C14         1.9482   -8.6752   -0.4590 C.ar      1 <0>        -0.1738
     20 C15        -0.9743  -10.8724    0.3830 C.2       1 <0>         0.3517
     21 O4         -0.6051  -11.9405   -0.0655 O.2       1 <0>        -0.3716
     22 N2         -2.1764  -10.7732    0.9842 N.am      1 <0>        -0.4283
     23 H1          4.1187    1.3613   -1.4976 H         1 <0>         0.0957
     24 H2          3.7578    2.3477   -0.0606 H         1 <0>         0.0796
     25 H3          4.1304    0.6165    0.1190 H         1 <0>         0.1159
     26 H4          1.5409    3.0519   -0.8891 H         1 <0>         0.1498
     27 H5         -0.9170    2.3089   -1.1151 H         1 <0>         0.1908
     28 H6          3.4016   -3.9563   -1.0196 H         1 <0>         0.1112
     29 H7          3.2005   -3.8163    0.7434 H         1 <0>         0.1116
     30 H8          3.3086   -6.4296   -0.0134 H         1 <0>         0.2356
     31 H9         -0.0389   -6.4019    1.0812 H         1 <0>         0.1629
     32 H10        -1.4918   -8.3743    1.2658 H         1 <0>         0.1296
     33 H11         1.4706  -10.7332   -0.7531 H         1 <0>         0.1605
     34 H12         2.9117   -8.7525   -0.9407 H         1 <0>         0.1362
     35 H13        -2.4709   -9.9211    1.3421 H         1 <0>         0.2162
     36 H14        -2.7471  -11.5540    1.0591 H         1 <0>         0.2313
@<TRIPOS>BOND
     1    1    2 1
     2    1   23 1
     3    1   24 1
     4    1   25 1
     5    2    6 2
     6    2    3 1
     7    3    4 2
     8    3   26 1
     9    4    5 1
    10    4   27 1
    11    5    6 1
    12    6    7 1
    13    7    8 2
    14    7    9 1
    15    9   10 1
    16   10   11 1
    17   10   28 1
    18   10   29 1
    19   11   12 2
    20   11   13 am
    21   13   14 1
    22   13   30 1
    23   14   19 ar
    24   14   15 ar
    25   15   16 ar
    26   15   31 1
    27   16   17 ar
    28   16   32 1
    29   17   18 ar
    30   17   20 1
    31   18   19 ar
    32   18   33 1
    33   19   34 1
    34   20   21 2
    35   20   22 am
    36   22   35 1
    37   22   36 1
@<TRIPOS>MOLECULE
ZINC03315507
   41    43     0     0     0
SMALL
USER_CHARGES

@<TRIPOS>ATOM
      1 C1         -2.7489    9.4671    9.6294 C.3       1 <0>        -0.2074
      2 C2         -3.1178    8.3499    8.6514 C.3       1 <0>        -0.1108
      3 H1         -3.7786    8.7437    7.8792 H         1 <0>         0.0977
      4 C3         -1.8462    7.7939    8.0041 C.3       1 <0>        -0.1603
      5 C4         -2.2146    6.8597    6.8500 C.3       1 <0>        -0.0983
      6 C5         -3.2082    5.8223    7.3576 C.2       1 <0>        -0.0648
      7 C6         -3.4864    4.5691    6.6817 C.2       1 <0>        -0.1728
      8 C7         -4.4052    3.7187    7.2565 C.2       1 <0>        -0.3274
      9 S1         -4.9032    4.5750    8.6782 S.3       1 <0>         0.4101
     10 C8         -3.9056    6.0264    8.4985 C.2       1 <0>        -0.2793
     11 C9         -3.8336    7.2193    9.4002 C.3       1 <0>        -0.0744
     12 C10        -2.8049    4.2152    5.4263 C.2       1 <0>         0.3647
     13 O1         -1.9966    4.9809    4.9363 O.2       1 <0>        -0.3523
     14 N1         -3.0763    3.0428    4.8196 N.am      1 <0>        -0.3276
     15 C11        -2.3504    2.6563    3.6883 C.ar      1 <0>         0.1256
     16 C12        -2.9653    1.9178    2.6856 C.ar      1 <0>        -0.1907
     17 C13        -2.2457    1.5381    1.5696 C.ar      1 <0>        -0.0075
     18 C14        -0.9145    1.8926    1.4498 C.ar      1 <0>        -0.7836
     19 C15        -0.2979    2.6234    2.4488 C.ar      1 <0>        -0.0086
     20 C16        -1.0132    3.0107    3.5649 C.ar      1 <0>        -0.1544
     21 S2          0.0001    1.4057    0.0246 S.o2      1 <0>         2.7642
     22 O2         -0.6534    0.2607   -0.5057 O.2       1 <0>        -0.9212
     23 O3          1.3691    1.3935    0.4052 O.2       1 <0>        -0.9188
     24 N2         -0.1679    2.6098   -1.0998 N.pl3     1 <0>        -0.9312
     25 H2         -2.2368   10.2656    9.0925 H         1 <0>         0.0792
     26 H3         -3.6552    9.8615   10.0890 H         1 <0>         0.0740
     27 H4         -2.0921    9.0703   10.4035 H         1 <0>         0.0754
     28 H5         -1.2730    7.2411    8.7484 H         1 <0>         0.0863
     29 H6         -1.2431    8.6185    7.6240 H         1 <0>         0.0880
     30 H7         -1.3180    6.3590    6.4847 H         1 <0>         0.1203
     31 H8         -2.6680    7.4362    6.0437 H         1 <0>         0.1028
     32 H9         -4.7356    2.7522    6.9056 H         1 <0>         0.1831
     33 H10        -4.8404    7.5312    9.6779 H         1 <0>         0.0958
     34 H11        -3.2660    6.9686   10.2964 H         1 <0>         0.0992
     35 H12        -3.7751    2.4670    5.1675 H         1 <0>         0.2360
     36 H13        -4.0049    1.6403    2.7787 H         1 <0>         0.1367
     37 H14        -2.7234    0.9641    0.7894 H         1 <0>         0.1540
     38 H15         0.7431    2.8951    2.3542 H         1 <0>         0.1570
     39 H16        -0.5320    3.5847    4.3430 H         1 <0>         0.1678
     40 H17        -0.6999    3.3944   -0.8944 H         1 <0>         0.2309
     41 H18         0.2657    2.5304   -1.9639 H         1 <0>         0.2427
@<TRIPOS>BOND
     1    1    2 1
     2    1   25 1
     3    1   26 1
     4    1   27 1
     5    2    3 1
     6    2   11 1
     7    2    4 1
     8    4    5 1
     9    4   28 1
    10    4   29 1
    11    5    6 1
    12    5   30 1
    13    5   31 1
    14    6   10 2
    15    6    7 1
    16    7    8 2
    17    7   12 1
    18    8    9 1
    19    8   32 1
    20    9   10 1
    21   10   11 1
    22   11   33 1
    23   11   34 1
    24   12   13 2
    25   12   14 am
    26   14   15 1
    27   14   35 1
    28   15   20 ar
    29   15   16 ar
    30   16   17 ar
    31   16   36 1
    32   17   18 ar
    33   17   37 1
    34   18   19 ar
    35   18   21 1
    36   19   20 ar
    37   19   38 1
    38   20   39 1
    39   21   22 2
    40   21   23 2
    41   21   24 1
    42   24   40 1
    43   24   41 1
@<TRIPOS>MOLECULE
ZINC03315508
   41    43     0     0     0
SMALL
USER_CHARGES

@<TRIPOS>ATOM
      1 C1         -1.4728    3.6499   -2.4628 C.3       1 <0>        -0.2076
      2 C2         -0.9528    3.1113   -1.1285 C.3       1 <0>        -0.1107
      3 H1          0.0001    3.5830   -0.8883 H         1 <0>         0.0980
      4 C3         -0.7648    1.5947   -1.2255 C.3       1 <0>        -0.1603
      5 C4         -0.0175    1.0824    0.0072 C.3       1 <0>        -0.0994
      6 C5         -0.7286    1.5832    1.2581 C.2       1 <0>        -0.0653
      7 C6         -0.5497    1.0060    2.5769 C.2       1 <0>        -0.1700
      8 C7         -1.2577    1.5579    3.6219 C.2       1 <0>        -0.3251
      9 S1         -2.1608    2.8331    2.8589 S.3       1 <0>         0.4030
     10 C8         -1.5932    2.6243    1.1951 C.2       1 <0>        -0.2775
     11 C9         -1.9710    3.4141   -0.0193 C.3       1 <0>        -0.0745
     12 C10         0.3587   -0.1318    2.7916 C.2       1 <0>         0.3649
     13 O1          0.9745   -0.6036    1.8546 O.2       1 <0>        -0.3507
     14 N1          0.5083   -0.6510    4.0263 N.am      1 <0>        -0.3282
     15 C11         1.2955   -1.7916    4.2146 C.ar      1 <0>         0.1220
     16 C12         0.9421   -2.7303    5.1753 C.ar      1 <0>        -0.1897
     17 C13         1.7190   -3.8579    5.3554 C.ar      1 <0>        -0.0091
     18 C14         2.8534   -4.0477    4.5877 C.ar      1 <0>        -0.7825
     19 C15         3.2110   -3.1124    3.6340 C.ar      1 <0>        -0.0104
     20 C16         2.4355   -1.9852    3.4452 C.ar      1 <0>        -0.1543
     21 S2          3.8458   -5.4840    4.8257 S.o2      1 <0>         2.7634
     22 O2          3.0000   -6.4717    5.3988 O.2       1 <0>        -0.9197
     23 O3          4.5506   -5.6967    3.6103 O.2       1 <0>        -0.9168
     24 N2          4.9811   -5.1103    5.9719 N.pl3     1 <0>        -0.9320
     25 H2         -2.4284    3.1805   -2.6965 H         1 <0>         0.0756
     26 H3         -1.6060    4.7294   -2.3918 H         1 <0>         0.0737
     27 H4         -0.7545    3.4235   -3.2508 H         1 <0>         0.0793
     28 H5         -0.1908    1.3576   -2.1213 H         1 <0>         0.0883
     29 H6         -1.7403    1.1119   -1.2839 H         1 <0>         0.0869
     30 H7         -0.0095   -0.0075    0.0029 H         1 <0>         0.1232
     31 H8          1.0066    1.4555   -0.0051 H         1 <0>         0.1012
     32 H9         -1.2547    1.2665    4.6619 H         1 <0>         0.1822
     33 H10        -1.9535    4.4785    0.2147 H         1 <0>         0.0949
     34 H11        -2.9694    3.1263   -0.3487 H         1 <0>         0.1001
     35 H12         0.0700   -0.2337    4.7843 H         1 <0>         0.2349
     36 H13         0.0587   -2.5805    5.7782 H         1 <0>         0.1365
     37 H14         1.4423   -4.5904    6.0992 H         1 <0>         0.1539
     38 H15         4.0977   -3.2633    3.0363 H         1 <0>         0.1570
     39 H16         2.7155   -1.2550    2.7004 H         1 <0>         0.1735
     40 H17         4.9966   -4.2254    6.3688 H         1 <0>         0.2288
     41 H18         5.6307   -5.7764    6.2465 H         1 <0>         0.2428
@<TRIPOS>BOND
     1    1    2 1
     2    1   25 1
     3    1   26 1
     4    1   27 1
     5    2    3 1
     6    2   11 1
     7    2    4 1
     8    4    5 1
     9    4   28 1
    10    4   29 1
    11    5    6 1
    12    5   30 1
    13    5   31 1
    14    6   10 2
    15    6    7 1
    16    7    8 2
    17    7   12 1
    18    8    9 1
    19    8   32 1
    20    9   10 1
    21   10   11 1
    22   11   33 1
    23   11   34 1
    24   12   13 2
    25   12   14 am
    26   14   15 1
    27   14   35 1
    28   15   20 ar
    29   15   16 ar
    30   16   17 ar
    31   16   36 1
    32   17   18 ar
    33   17   37 1
    34   18   19 ar
    35   18   21 1
    36   19   20 ar
    37   19   38 1
    38   20   39 1
    39   21   22 2
    40   21   23 2
    41   21   24 1
    42   24   40 1
    43   24   41 1
@<TRIPOS>MOLECULE
ZINC03315679
   43    45     0     0     0
SMALL
USER_CHARGES

@<TRIPOS>ATOM
      1 C1          0.5140   -1.0292   -2.6443 C.3       1 <0>        -0.2443
      2 C2          0.9126    0.4471   -2.5934 C.3       1 <0>        -0.0185
      3 N1         -0.2884    1.2723   -2.4431 N.am      1 <0>        -0.3012
      4 C3         -0.9637    1.7348   -3.5741 C.ar      1 <0>         0.0643
      5 C4         -0.6262    2.9460   -4.1386 C.ar      1 <0>        -0.1099
      6 C5         -1.2930    3.4161   -5.2660 C.ar      1 <0>        -0.1246
      7 C6         -2.2943    2.6952   -5.8421 C.ar      1 <0>        -0.1061
      8 C7         -2.6687    1.4551   -5.2978 C.ar      1 <0>        -0.0316
      9 C8         -1.9938    0.9637   -4.1531 C.ar      1 <0>        -0.0266
     10 C9         -2.3719   -0.2734   -3.6079 C.ar      1 <0>        -0.1185
     11 C10        -3.3740   -0.9883   -4.1897 C.ar      1 <0>        -0.1217
     12 C11        -4.0355   -0.5079   -5.3181 C.ar      1 <0>        -0.1236
     13 C12        -3.6986    0.6891   -5.8712 C.ar      1 <0>        -0.1135
     14 C13        -0.7416    1.5850   -1.2129 C.2       1 <0>         0.3170
     15 O1         -1.7360    2.2682   -1.0884 O.2       1 <0>        -0.3339
     16 C14        -0.0127    1.0858    0.0080 C.3       1 <0>        -0.3012
     17 S1         -0.8599    1.6695    1.4972 S.3       1 <0>         0.3159
     18 C15         0.1742    0.9607    2.7352 C.2       1 <0>         0.0119
     19 N2         -0.1215    1.1653    4.0492 N.am      1 <0>        -0.2774
     20 H1         -0.9188    1.7135    4.3017 H         1 <0>         0.2570
     21 C16         0.6592    0.6297    5.0106 C.2       1 <0>         0.3477
     22 O2          0.4014    0.8081    6.1907 O.2       1 <0>        -0.3772
     23 C17         1.7686   -0.1328    4.6328 C.2       1 <0>        -0.4096
     24 C18         2.0268   -0.3112    3.2807 C.2       1 <0>         0.2276
     25 N3          1.2145    0.2391    2.3716 N.2       1 <0>        -0.3164
     26 N4          3.1145   -1.0587    2.8758 N.pl3     1 <0>        -0.3832
     27 H2          1.4077   -1.6432   -2.7562 H         1 <0>         0.0852
     28 H3          0.0010   -1.2991   -1.7212 H         1 <0>         0.0780
     29 H4         -0.1505   -1.1971   -3.4918 H         1 <0>         0.0983
     30 H5          1.4257    0.7170   -3.5165 H         1 <0>         0.1024
     31 H6          1.5772    0.6150   -1.7459 H         1 <0>         0.0914
     32 H7          0.1645    3.5372   -3.7008 H         1 <0>         0.1363
     33 H8         -1.0114    4.3681   -5.6912 H         1 <0>         0.1333
     34 H9         -2.8000    3.0762   -6.7170 H         1 <0>         0.1348
     35 H10        -1.8678   -0.6579   -2.7336 H         1 <0>         0.1382
     36 H11        -3.6601   -1.9417   -3.7706 H         1 <0>         0.1294
     37 H12        -4.8271   -1.0944   -5.7606 H         1 <0>         0.1298
     38 H13        -4.2195    1.0485   -6.7463 H         1 <0>         0.1342
     39 H14         0.0021   -0.0041    0.0020 H         1 <0>         0.1398
     40 H15         1.0099    1.4631    0.0003 H         1 <0>         0.1390
     41 H16         2.4123   -0.5750    5.3788 H         1 <0>         0.1643
     42 H17         3.7000   -1.4605    3.5366 H         1 <0>         0.2376
     43 H18         3.2932   -1.1822    1.9305 H         1 <0>         0.2254
@<TRIPOS>BOND
     1    1    2 1
     2    1   27 1
     3    1   28 1
     4    1   29 1
     5    2    3 1
     6    2   30 1
     7    2   31 1
     8    3    4 1
     9    3   14 am
    10    4    9 ar
    11    4    5 ar
    12    5    6 ar
    13    5   32 1
    14    6    7 ar
    15    6   33 1
    16    7    8 ar
    17    7   34 1
    18    8   13 ar
    19    8    9 ar
    20    9   10 ar
    21   10   11 ar
    22   10   35 1
    23   11   12 ar
    24   11   36 1
    25   12   13 ar
    26   12   37 1
    27   13   38 1
    28   14   15 2
    29   14   16 1
    30   16   17 1
    31   16   39 1
    32   16   40 1
    33   17   18 1
    34   18   25 2
    35   18   19 1
    36   19   20 1
    37   19   21 am
    38   21   22 2
    39   21   23 1
    40   23   24 2
    41   23   41 1
    42   24   25 1
    43   24   26 1
    44   26   42 1
    45   26   43 1
@<TRIPOS>MOLECULE
ZINC03315679
   43    45     0     0     0
SMALL
USER_CHARGES

@<TRIPOS>ATOM
      1 C1          0.5140   -1.0292   -2.6443 C.3       1 <0>        -0.2443
      2 C2          0.9126    0.4471   -2.5934 C.3       1 <0>        -0.0167
      3 N1         -0.2884    1.2723   -2.4431 N.am      1 <0>        -0.3058
      4 C3         -0.9637    1.7348   -3.5741 C.ar      1 <0>         0.0692
      5 C4         -0.6262    2.9460   -4.1386 C.ar      1 <0>        -0.1123
      6 C5         -1.2930    3.4161   -5.2660 C.ar      1 <0>        -0.1238
      7 C6         -2.2943    2.6952   -5.8421 C.ar      1 <0>        -0.1092
      8 C7         -2.6687    1.4551   -5.2978 C.ar      1 <0>        -0.0311
      9 C8         -1.9938    0.9637   -4.1531 C.ar      1 <0>        -0.0275
     10 C9         -2.3719   -0.2734   -3.6079 C.ar      1 <0>        -0.1154
     11 C10        -3.3740   -0.9883   -4.1897 C.ar      1 <0>        -0.1243
     12 C11        -4.0355   -0.5079   -5.3181 C.ar      1 <0>        -0.1239
     13 C12        -3.6986    0.6891   -5.8712 C.ar      1 <0>        -0.1152
     14 C13        -0.7416    1.5850   -1.2129 C.2       1 <0>         0.3184
     15 O1         -1.7360    2.2682   -1.0884 O.2       1 <0>        -0.3328
     16 C14        -0.0127    1.0858    0.0080 C.3       1 <0>        -0.3228
     17 S1         -0.8599    1.6695    1.4972 S.3       1 <0>         0.3714
     18 C15         0.1742    0.9607    2.7352 C.ar      1 <0>        -0.0072
     19 N2         -0.1149    1.1749    4.0491 N.ar      1 <0>        -0.2818
     20 H1          1.0913    0.3543    6.7548 H         1 <0>         0.2642
     21 C16         0.6659    0.6395    5.0105 C.ar      1 <0>         0.2599
     22 O2          0.4110    0.8222    6.1906 O.3       1 <0>        -0.1718
     23 C17         1.7651   -0.1377    4.6329 C.ar      1 <0>        -0.4850
     24 C18         2.0201   -0.3209    3.2808 C.ar      1 <0>         0.2605
     25 N3          1.2112    0.2344    2.3716 N.ar      1 <0>        -0.3496
     26 N4          3.1045   -1.0732    2.8760 N.pl3     1 <0>        -0.3861
     27 H2          1.4077   -1.6432   -2.7562 H         1 <0>         0.0823
     28 H3          0.0010   -1.2991   -1.7212 H         1 <0>         0.0798
     29 H4         -0.1505   -1.1971   -3.4918 H         1 <0>         0.0963
     30 H5          1.4257    0.7170   -3.5165 H         1 <0>         0.0989
     31 H6          1.5772    0.6150   -1.7459 H         1 <0>         0.0928
     32 H7          0.1645    3.5372   -3.7008 H         1 <0>         0.1364
     33 H8         -1.0114    4.3681   -5.6912 H         1 <0>         0.1318
     34 H9         -2.8000    3.0762   -6.7170 H         1 <0>         0.1333
     35 H10        -1.8678   -0.6579   -2.7336 H         1 <0>         0.1398
     36 H11        -3.6601   -1.9417   -3.7706 H         1 <0>         0.1285
     37 H12        -4.8271   -1.0944   -5.7606 H         1 <0>         0.1284
     38 H13        -4.2195    1.0485   -6.7463 H         1 <0>         0.1329
     39 H14         0.0021   -0.0041    0.0020 H         1 <0>         0.1338
     40 H15         1.0099    1.4631    0.0003 H         1 <0>         0.1330
     41 H16         2.4063   -0.5835    5.3789 H         1 <0>         0.1345
     42 H17         3.6874   -1.4786    3.5368 H         1 <0>         0.2308
     43 H18         3.2833   -1.1966    1.9307 H         1 <0>         0.2298
@<TRIPOS>BOND
     1    1    2 1
     2    1   27 1
     3    1   28 1
     4    1   29 1
     5    2    3 1
     6    2   30 1
     7    2   31 1
     8    3    4 1
     9    3   14 am
    10    4    9 ar
    11    4    5 ar
    12    5    6 ar
    13    5   32 1
    14    6    7 ar
    15    6   33 1
    16    7    8 ar
    17    7   34 1
    18    8   13 ar
    19    8    9 ar
    20    9   10 ar
    21   10   11 ar
    22   10   35 1
    23   11   12 ar
    24   11   36 1
    25   12   13 ar
    26   12   37 1
    27   13   38 1
    28   14   15 2
    29   14   16 1
    30   16   17 1
    31   16   39 1
    32   16   40 1
    33   17   18 1
    34   18   25 ar
    35   18   19 ar
    36   19   21 ar
    37   20   22 1
    38   21   22 1
    39   21   23 ar
    40   23   41 1
    41   23   24 ar
    42   24   26 1
    43   24   25 ar
    44   26   42 1
    45   26   43 1
@<TRIPOS>MOLECULE
ZINC03324120
   41    43     0     0     0
SMALL
USER_CHARGES

@<TRIPOS>ATOM
      1 C1         -4.9638    3.8946   -0.0360 C.3       1 <0>        -0.1761
      2 C2         -4.9564    5.3983   -0.1351 C.ar      1 <0>        -0.0828
      3 C3         -6.1511    6.0891   -0.2181 C.ar      1 <0>        -0.1261
      4 C4         -6.1525    7.4654   -0.3153 C.ar      1 <0>        -0.0940
      5 C5         -4.9442    8.1661   -0.3244 C.ar      1 <0>        -0.0988
      6 C6         -3.7389    7.4695   -0.2348 C.ar      1 <0>        -0.0796
      7 C7         -3.7487    6.0863   -0.1375 C.ar      1 <0>         0.0458
      8 N1         -2.5434    5.3832   -0.0474 N.am      1 <0>        -0.3101
      9 C8         -1.4197    6.0190    0.3393 C.2       1 <0>         0.3463
     10 O1         -1.4710    7.1780    0.7004 O.2       1 <0>        -0.3430
     11 C9         -0.1209    5.3041    0.3239 C.2       1 <0>        -0.0383
     12 C10        -0.0621    3.9691    0.0420 C.2       1 <0>        -0.1828
     13 C11         1.2328    3.2927    0.0341 C.2       1 <0>         0.3304
     14 O2          1.2861    2.1019   -0.2173 O.2       1 <0>        -0.3605
     15 N2          2.3666    3.9647    0.2996 N.am      1 <0>        -0.2778
     16 H1          3.2395    3.4771    0.2867 H         1 <0>         0.2566
     17 C12         2.3501    5.3123    0.5892 C.ar      1 <0>         0.0944
     18 C13         1.1333    6.0170    0.6116 C.ar      1 <0>        -0.1036
     19 C14         1.1258    7.3836    0.9053 C.ar      1 <0>        -0.0644
     20 C15         2.3003    8.0271    1.1753 C.ar      1 <0>        -0.1654
     21 C16         3.5044    7.3371    1.1493 C.ar      1 <0>        -0.0714
     22 C17         3.5356    5.9900    0.8618 C.ar      1 <0>        -0.1893
     23 C18        -4.9427    9.6399   -0.4279 C.2       1 <0>         0.3489
     24 O3         -3.8907   10.2471   -0.4352 O.2       1 <0>        -0.3533
     25 O4         -6.1079   10.3102   -0.5143 O.3       1 <0>        -0.2689
     26 C19        -6.0305   11.7567   -0.6133 C.3       1 <0>        -0.0505
     27 H2         -5.0022    3.5998    1.0127 H         1 <0>         0.0952
     28 H3         -5.8367    3.5005   -0.5564 H         1 <0>         0.0917
     29 H4         -4.0579    3.4959   -0.4925 H         1 <0>         0.0704
     30 H5         -7.0864    5.5492   -0.2113 H         1 <0>         0.1388
     31 H6         -7.0878    8.0010   -0.3841 H         1 <0>         0.1494
     32 H7         -2.8014    8.0056   -0.2416 H         1 <0>         0.2010
     33 H8         -2.5160    4.4379   -0.2632 H         1 <0>         0.2416
     34 H9         -0.9655    3.4178   -0.1730 H         1 <0>         0.1549
     35 H10         0.1934    7.9283    0.9231 H         1 <0>         0.1916
     36 H11         2.2923    9.0821    1.4064 H         1 <0>         0.1400
     37 H12         4.4253    7.8603    1.3607 H         1 <0>         0.1349
     38 H13         4.4770    5.4609    0.8484 H         1 <0>         0.1366
     39 H14        -7.0367   12.1710   -0.6763 H         1 <0>         0.1021
     40 H15        -5.5282   12.1549    0.2683 H         1 <0>         0.0835
     41 H16        -5.4684   12.0302   -1.5063 H         1 <0>         0.0825
@<TRIPOS>BOND
     1    1    2 1
     2    1   27 1
     3    1   28 1
     4    1   29 1
     5    2    7 ar
     6    2    3 ar
     7    3    4 ar
     8    3   30 1
     9    4    5 ar
    10    4   31 1
    11    5    6 ar
    12    5   23 1
    13    6    7 ar
    14    6   32 1
    15    7    8 1
    16    8    9 am
    17    8   33 1
    18    9   10 2
    19    9   11 1
    20   11   18 1
    21   11   12 2
    22   12   13 1
    23   12   34 1
    24   13   14 2
    25   13   15 am
    26   15   16 1
    27   15   17 1
    28   17   22 ar
    29   17   18 ar
    30   18   19 ar
    31   19   20 ar
    32   19   35 1
    33   20   21 ar
    34   20   36 1
    35   21   22 ar
    36   21   37 1
    37   22   38 1
    38   23   24 2
    39   23   25 1
    40   25   26 1
    41   26   39 1
    42   26   40 1
    43   26   41 1
@<TRIPOS>MOLECULE
ZINC03325389
   38    39     0     0     0
SMALL
USER_CHARGES

@<TRIPOS>ATOM
      1 C1          1.4820    4.3994    0.0200 C.3       1 <0>        -0.0752
      2 N1          0.6734    3.1778    0.0124 N.pl3     1 <0>        -0.0721
      3 C2          1.1551    1.9110    0.0038 C.2       1 <0>        -0.1129
      4 C3          0.1128    1.0460    0.0054 C.2       1 <0>        -0.2153
      5 C4         -1.0673    1.7961    0.0093 C.2       1 <0>        -0.1663
      6 C5         -0.7022    3.1256    0.0100 C.2       1 <0>        -0.1503
      7 C6         -1.6134    4.2750    0.0136 C.2       1 <0>         0.3815
      8 O1         -1.1685    5.4040    0.1053 O.2       1 <0>        -0.3886
      9 N2         -2.9435    4.0808   -0.0845 N.am      1 <0>        -0.3859
     10 C7         -3.8455    5.2300   -0.1929 C.3       1 <0>         0.0024
     11 C8         -5.2906    4.7367   -0.2903 C.3       1 <0>        -0.1506
     12 C9         -6.2185    5.9189   -0.4018 C.ar      1 <0>        -0.0190
     13 C10        -6.7422    6.4966    0.7396 C.ar      1 <0>        -0.1468
     14 C11        -7.5899    7.5837    0.6375 C.ar      1 <0>        -0.0226
     15 C12        -7.9211    8.0875   -0.6065 C.ar      1 <0>        -0.7628
     16 C13        -7.4015    7.5065   -1.7482 C.ar      1 <0>        -0.0228
     17 C14        -6.5504    6.4221   -1.6458 C.ar      1 <0>        -0.1470
     18 S1         -9.0051    9.4705   -0.7369 S.o2      1 <0>         2.7618
     19 O2         -8.9210   10.1701    0.4971 O.2       1 <0>        -0.9157
     20 O3         -8.7246   10.0901   -1.9845 O.2       1 <0>        -0.9158
     21 N3        -10.5472    8.8759   -0.8397 N.pl3     1 <0>        -0.9313
     22 H1          1.5991    4.7639   -1.0006 H         1 <0>         0.0934
     23 H2          0.9858    5.1600    0.6228 H         1 <0>         0.1299
     24 H3          2.4629    4.1832    0.4434 H         1 <0>         0.0863
     25 H4          2.1995    1.6362    0.0009 H         1 <0>         0.1681
     26 H5          0.1810   -0.0319    0.0043 H         1 <0>         0.1499
     27 H6         -2.0749    1.4074    0.0114 H         1 <0>         0.1422
     28 H7         -3.3035    3.1800   -0.0833 H         1 <0>         0.2264
     29 H8         -3.7360    5.8623    0.6882 H         1 <0>         0.1016
     30 H9         -3.5967    5.8042   -1.0853 H         1 <0>         0.0992
     31 H10        -5.4001    4.1045   -1.1714 H         1 <0>         0.0969
     32 H11        -5.5394    4.1625    0.6022 H         1 <0>         0.0971
     33 H12        -6.4864    6.1007    1.7113 H         1 <0>         0.1406
     34 H13        -7.9956    8.0378    1.5294 H         1 <0>         0.1549
     35 H14        -7.6602    7.9001   -2.7200 H         1 <0>         0.1548
     36 H15        -6.1444    5.9682   -2.5378 H         1 <0>         0.1403
     37 H16       -10.7000    7.9182   -0.8209 H         1 <0>         0.2295
     38 H17       -11.2977    9.4853   -0.9188 H         1 <0>         0.2441
@<TRIPOS>BOND
     1    1    2 1
     2    1   22 1
     3    1   23 1
     4    1   24 1
     5    2    6 1
     6    2    3 1
     7    3    4 2
     8    3   25 1
     9    4    5 1
    10    4   26 1
    11    5    6 2
    12    5   27 1
    13    6    7 1
    14    7    8 2
    15    7    9 am
    16    9   10 1
    17    9   28 1
    18   10   11 1
    19   10   29 1
    20   10   30 1
    21   11   12 1
    22   11   31 1
    23   11   32 1
    24   12   17 ar
    25   12   13 ar
    26   13   14 ar
    27   13   33 1
    28   14   15 ar
    29   14   34 1
    30   15   16 ar
    31   15   18 1
    32   16   17 ar
    33   16   35 1
    34   17   36 1
    35   18   19 2
    36   18   20 2
    37   18   21 1
    38   21   37 1
    39   21   38 1
@<TRIPOS>MOLECULE
ZINC03327463
   40    41     0     0     0
SMALL
USER_CHARGES

@<TRIPOS>ATOM
      1 C1         -3.6346    3.5672   -5.4694 C.3       1 <0>        -0.1348
      2 C2         -2.4729    2.7699   -4.9346 C.2       1 <0>        -0.0444
      3 C3         -2.1961    2.5735   -3.6364 C.2       1 <0>        -0.2078
      4 C4         -0.9809    1.7466   -3.6030 C.2       1 <0>        -0.2403
      5 C5         -0.6544    1.5208   -4.9081 C.2       1 <0>         0.0443
      6 O1         -1.5538    2.1377   -5.6808 O.3       1 <0>        -0.0578
      7 C6          0.5206    0.7130   -5.3959 C.3       1 <0>        -0.1439
      8 C7         -0.2681    1.2584   -2.4090 C.2       1 <0>         0.3845
      9 O2          0.7289    0.5734   -2.5338 O.2       1 <0>        -0.3819
     10 N1         -0.7213    1.5711   -1.1789 N.am      1 <0>        -0.3897
     11 C8         -0.0127    1.0858    0.0080 C.3       1 <0>         0.0006
     12 C9         -0.7288    1.5792    1.2668 C.3       1 <0>        -0.1505
     13 C10         0.0000    1.0800    2.4877 C.ar      1 <0>        -0.0191
     14 C11        -0.3473   -0.1331    3.0522 C.ar      1 <0>        -0.1467
     15 C12         0.3242   -0.5931    4.1695 C.ar      1 <0>        -0.0200
     16 C13         1.3369    0.1643    4.7277 C.ar      1 <0>        -0.7635
     17 C14         1.6808    1.3799    4.1664 C.ar      1 <0>        -0.0266
     18 C15         1.0121    1.8378    3.0465 C.ar      1 <0>        -0.1466
     19 S1          2.1900   -0.4199    6.1545 S.o2      1 <0>         2.7612
     20 O3          2.0481   -1.8338    6.1619 O.2       1 <0>        -0.9173
     21 O4          3.4595    0.2183    6.1584 O.2       1 <0>        -0.9127
     22 N2          1.3723    0.1447    7.4792 N.pl3     1 <0>        -0.9289
     23 H1         -3.6143    3.5526   -6.5591 H         1 <0>         0.0951
     24 H2         -4.5686    3.1293   -5.1174 H         1 <0>         0.0959
     25 H3         -3.5610    4.5966   -5.1185 H         1 <0>         0.0958
     26 H4         -2.7509    2.9486   -2.7892 H         1 <0>         0.1528
     27 H5          0.2220   -0.3288   -5.5125 H         1 <0>         0.1034
     28 H6          0.8570    1.1042   -6.3560 H         1 <0>         0.0873
     29 H7          1.3327    0.7794   -4.6719 H         1 <0>         0.1356
     30 H8         -1.5165    2.1175   -1.0793 H         1 <0>         0.2231
     31 H9          0.0021   -0.0041    0.0020 H         1 <0>         0.1000
     32 H10         1.0099    1.4631    0.0003 H         1 <0>         0.0997
     33 H11        -0.7436    2.6691    1.2728 H         1 <0>         0.0958
     34 H12        -1.7514    1.2020    1.2746 H         1 <0>         0.0959
     35 H13        -1.1411   -0.7231    2.6182 H         1 <0>         0.1401
     36 H14         0.0558   -1.5429    4.6079 H         1 <0>         0.1542
     37 H15         2.4720    1.9716    4.6025 H         1 <0>         0.1530
     38 H16         1.2808    2.7875    2.6079 H         1 <0>         0.1398
     39 H17         1.3747   -0.3652    8.3044 H         1 <0>         0.2442
     40 H18         0.8910    0.9855    7.4301 H         1 <0>         0.2302
@<TRIPOS>BOND
     1    1    2 1
     2    1   23 1
     3    1   24 1
     4    1   25 1
     5    2    6 1
     6    2    3 2
     7    3    4 1
     8    3   26 1
     9    4    5 2
    10    4    8 1
    11    5    6 1
    12    5    7 1
    13    7   27 1
    14    7   28 1
    15    7   29 1
    16    8    9 2
    17    8   10 am
    18   10   11 1
    19   10   30 1
    20   11   12 1
    21   11   31 1
    22   11   32 1
    23   12   13 1
    24   12   33 1
    25   12   34 1
    26   13   18 ar
    27   13   14 ar
    28   14   15 ar
    29   14   35 1
    30   15   16 ar
    31   15   36 1
    32   16   17 ar
    33   16   19 1
    34   17   18 ar
    35   17   37 1
    36   18   38 1
    37   19   20 2
    38   19   21 2
    39   19   22 1
    40   22   39 1
    41   22   40 1
@<TRIPOS>MOLECULE
ZINC03330634
   40    43     0     0     0
SMALL
USER_CHARGES

@<TRIPOS>ATOM
      1 C1          2.3057   -4.3951   -0.0386 C.3       1 <0>        -0.0604
      2 O1          0.9212   -4.0412   -0.0260 O.3       1 <0>        -0.2254
      3 C2          0.6232   -2.7139   -0.0076 C.ar      1 <0>         0.0424
      4 C3          1.6389   -1.7774   -0.0018 C.ar      1 <0>        -0.1525
      5 C4          1.3281   -0.4207    0.0175 C.ar      1 <0>        -0.0885
      6 C5          2.1369    0.8132    0.0279 C.ar      1 <0>        -0.1117
      7 C6          3.5035    1.0724    0.0226 C.ar      1 <0>        -0.0729
      8 C7          3.9523    2.3764    0.0356 C.ar      1 <0>        -0.1530
      9 C8          3.0451    3.4239    0.0544 C.ar      1 <0>        -0.0966
     10 C9          1.6882    3.1780    0.0603 C.ar      1 <0>        -0.1262
     11 C10         1.2169    1.8706    0.0468 C.ar      1 <0>         0.0616
     12 O2         -0.0315    1.3535    0.0482 O.3       1 <0>        -0.0848
     13 C11        -0.0087    0.0015    0.0311 C.ar      1 <0>         0.0458
     14 C12        -1.0218   -0.9484    0.0255 C.ar      1 <0>        -0.1075
     15 C13        -0.7092   -2.2973    0.0059 C.ar      1 <0>         0.0678
     16 N1         -1.7353   -3.2489    0.0004 N.am      1 <0>        -0.3079
     17 C14        -2.9526   -2.9246   -0.4788 C.2       1 <0>         0.3511
     18 O3         -3.1323   -1.8397   -0.9981 O.2       1 <0>        -0.3396
     19 C15        -4.0671   -3.8858   -0.3733 C.2       1 <0>        -0.0056
     20 C16        -5.2657   -3.5593   -0.8482 C.2       1 <0>        -0.1889
     21 C17        -6.4371   -4.4931   -0.7638 C.3       1 <0>        -0.1355
     22 C18        -5.9959   -5.8976   -0.4719 C.2       1 <0>         0.3099
     23 O4         -6.7647   -6.8130   -0.6770 O.2       1 <0>        -0.3623
     24 N2         -4.7715   -6.1672    0.0113 N.am      1 <0>        -0.2650
     25 N3         -3.8517   -5.1336    0.2200 N.pl3     1 <0>        -0.2960
     26 H1          2.7797   -3.9761   -0.9262 H         1 <0>         0.0733
     27 H2          2.7902   -3.9985    0.8536 H         1 <0>         0.0696
     28 H3          2.4030   -5.4806   -0.0528 H         1 <0>         0.1087
     29 H4          2.6705   -2.0968   -0.0126 H         1 <0>         0.1433
     30 H5          4.2102    0.2558    0.0084 H         1 <0>         0.1317
     31 H6          5.0126    2.5816    0.0312 H         1 <0>         0.1347
     32 H7          3.4042    4.4424    0.0649 H         1 <0>         0.1380
     33 H8          0.9908    4.0025    0.0749 H         1 <0>         0.1428
     34 H9         -2.0551   -0.6345    0.0363 H         1 <0>         0.1882
     35 H10        -1.5705   -4.1419    0.3415 H         1 <0>         0.2408
     36 H11        -5.4000   -2.5920   -1.3094 H         1 <0>         0.1674
     37 H12        -7.1050   -4.1568    0.0292 H         1 <0>         0.1247
     38 H13        -6.9740   -4.4786   -1.7123 H         1 <0>         0.1285
     39 H14        -4.5222   -7.0829    0.2122 H         1 <0>         0.2587
     40 H15        -3.0712   -5.2815    0.7766 H         1 <0>         0.2513
@<TRIPOS>BOND
     1    1    2 1
     2    1   26 1
     3    1   27 1
     4    1   28 1
     5    2    3 1
     6    3   15 ar
     7    3    4 ar
     8    4    5 ar
     9    4   29 1
    10    5   13 ar
    11    5    6 1
    12    6   11 ar
    13    6    7 ar
    14    7    8 ar
    15    7   30 1
    16    8    9 ar
    17    8   31 1
    18    9   10 ar
    19    9   32 1
    20   10   11 ar
    21   10   33 1
    22   11   12 1
    23   12   13 1
    24   13   14 ar
    25   14   15 ar
    26   14   34 1
    27   15   16 1
    28   16   17 am
    29   16   35 1
    30   17   18 2
    31   17   19 1
    32   19   25 1
    33   19   20 2
    34   20   21 1
    35   20   36 1
    36   21   22 1
    37   21   37 1
    38   21   38 1
    39   22   23 2
    40   22   24 am
    41   24   25 1
    42   24   39 1
    43   25   40 1
@<TRIPOS>MOLECULE
ZINC03331253
   38    40     0     0     0
SMALL
USER_CHARGES

@<TRIPOS>ATOM
      1 C1          5.6459    2.1433   -0.3826 C.ar      1 <0>        -0.0356
      2 C2          4.2733    2.1105   -0.2829 C.ar      1 <0>        -0.1942
      3 C3          3.5892    0.9133   -0.4687 C.ar      1 <0>         0.1161
      4 C4          4.2896   -0.2557   -0.7496 C.ar      1 <0>        -0.1748
      5 C5          5.6619   -0.2290   -0.8558 C.ar      1 <0>        -0.0692
      6 C6          6.3524    0.9720   -0.6703 C.ar      1 <0>        -0.1670
      7 C7          7.8235    1.0035   -0.7783 C.2       1 <0>         0.3460
      8 O1          8.4227    2.0491   -0.6171 O.2       1 <0>        -0.3537
      9 N1          8.5031   -0.1268   -1.0558 N.am      1 <0>        -0.2588
     10 C8          9.8845   -0.0973   -1.1573 C.2       1 <0>        -0.0795
     11 C9         10.7532   -1.1484   -1.4279 C.2       1 <0>        -0.2811
     12 C10        12.1603   -0.8304   -1.4802 C.2       1 <0>        -0.1262
     13 C11        12.5099    0.4485   -1.2526 C.2       1 <0>        -0.3836
     14 S1         10.9481    1.2562   -0.9703 S.3       1 <0>         0.5025
     15 C12        10.2640   -2.5119   -1.6535 C.2       1 <0>         0.3857
     16 O2          9.0705   -2.7458   -1.6061 O.2       1 <0>        -0.4162
     17 N2         11.1359   -3.5063   -1.9135 N.am      1 <0>        -0.4233
     18 N3          2.1987    0.8837   -0.3675 N.am      1 <0>        -0.2820
     19 C13         1.3742    2.0248    0.0475 C.3       1 <0>        -0.0262
     20 C14        -0.0630    1.6795   -0.4013 C.3       1 <0>        -0.1777
     21 C15        -0.0212    0.1341   -0.4317 C.3       1 <0>        -0.1981
     22 C16         1.4413   -0.1934   -0.6374 C.2       1 <0>         0.3134
     23 O3          1.8684   -1.2713   -0.9933 O.2       1 <0>        -0.3355
     24 H1          6.1763    3.0731   -0.2390 H         1 <0>         0.1570
     25 H2          3.7269    3.0151   -0.0607 H         1 <0>         0.1360
     26 H3          3.7558   -1.1841   -0.8888 H         1 <0>         0.1899
     27 H4          6.2046   -1.1358   -1.0782 H         1 <0>         0.1444
     28 H5          8.0251   -0.9610   -1.1845 H         1 <0>         0.2776
     29 H6         12.9013   -1.5879   -1.6887 H         1 <0>         0.1359
     30 H7         13.4993    0.8812   -1.2436 H         1 <0>         0.1861
     31 H8         12.0870   -3.3198   -1.9512 H         1 <0>         0.2177
     32 H9         10.8122   -4.4084   -2.0627 H         1 <0>         0.2286
     33 H10         1.7148    2.9353   -0.4454 H         1 <0>         0.0994
     34 H11         1.4129    2.1441    1.1303 H         1 <0>         0.0950
     35 H12        -0.2700    2.0837   -1.3922 H         1 <0>         0.1032
     36 H13        -0.7949    2.0357    0.3238 H         1 <0>         0.1034
     37 H14        -0.3745   -0.2758    0.5145 H         1 <0>         0.1210
     38 H15        -0.6178   -0.2474   -1.2603 H         1 <0>         0.1239
@<TRIPOS>BOND
     1    1    6 ar
     2    1    2 ar
     3    1   24 1
     4    2    3 ar
     5    2   25 1
     6    3    4 ar
     7    3   18 1
     8    4    5 ar
     9    4   26 1
    10    5    6 ar
    11    5   27 1
    12    6    7 1
    13    7    8 2
    14    7    9 am
    15    9   10 1
    16    9   28 1
    17   10   14 1
    18   10   11 2
    19   11   12 1
    20   11   15 1
    21   12   13 2
    22   12   29 1
    23   13   14 1
    24   13   30 1
    25   15   16 2
    26   15   17 am
    27   17   31 1
    28   17   32 1
    29   18   22 am
    30   18   19 1
    31   19   20 1
    32   19   33 1
    33   19   34 1
    34   20   21 1
    35   20   35 1
    36   20   36 1
    37   21   22 1
    38   21   37 1
    39   21   38 1
    40   22   23 2
@<TRIPOS>MOLECULE
ZINC03335478
   39    41     0     0     0
SMALL
USER_CHARGES

@<TRIPOS>ATOM
      1 C1          7.3710    3.8083   -4.6316 C.3       1 <0>        -0.1761
      2 C2          7.5331    4.7533   -3.4689 C.ar      1 <0>        -0.1126
      3 C3          8.5475    5.6907   -3.4761 C.ar      1 <0>        -0.1089
      4 C4          8.6964    6.5587   -2.4102 C.ar      1 <0>        -0.1458
      5 C5          7.8307    6.4915   -1.3336 C.ar      1 <0>        -0.1181
      6 C6          6.8118    5.5596   -1.3222 C.ar      1 <0>        -0.1328
      7 C7          6.6624    4.6829   -2.3893 C.ar      1 <0>         0.0736
      8 N1          5.6341    3.7354   -2.3791 N.pl3     1 <0>        -0.2532
      9 C8          5.1039    3.3045   -1.1785 C.ar      1 <0>         0.2760
     10 N2          4.0518    2.4888   -1.1690 N.ar      1 <0>        -0.3364
     11 C9          3.5404    2.0807   -0.0211 C.ar      1 <0>         0.1624
     12 N3          4.0772    2.4715    1.1217 N.ar      1 <0>        -0.3379
     13 C10         5.1325    3.2827    1.1203 C.ar      1 <0>         0.2762
     14 N4          5.6462    3.6995   -0.0320 N.ar      1 <0>        -0.3646
     15 N5          5.6920    3.6906    2.3140 N.pl3     1 <0>        -0.3637
     16 C11         2.3456    1.1623   -0.0149 C.3       1 <0>         0.0659
     17 O1          1.1278    1.9526    0.0078 O.3       1 <0>        -0.2439
     18 C12        -0.0402    1.2777    0.0160 C.2       1 <0>         0.3987
     19 O2         -0.0399    0.0615    0.0045 O.2       1 <0>        -0.3476
     20 C13        -1.3088    2.0095    0.0327 C.2       1 <0>        -0.0963
     21 C14        -2.5569    1.4532    0.0370 C.2       1 <0>        -0.1198
     22 C15        -3.4722    2.5165    0.0540 C.2       1 <0>        -0.2387
     23 C16        -2.7530    3.6609    0.0593 C.2       1 <0>        -0.0633
     24 O3         -1.4501    3.3513    0.0523 O.3       1 <0>        -0.0290
     25 H1          6.7068    4.2540   -5.3721 H         1 <0>         0.0838
     26 H2          8.3443    3.6186   -5.0840 H         1 <0>         0.0876
     27 H3          6.9446    2.8690   -4.2796 H         1 <0>         0.0787
     28 H4          9.2250    5.7460   -4.3154 H         1 <0>         0.1314
     29 H5          9.4902    7.2910   -2.4184 H         1 <0>         0.1281
     30 H6          7.9495    7.1712   -0.5027 H         1 <0>         0.1292
     31 H7          6.1339    5.5101   -0.4829 H         1 <0>         0.1705
     32 H8          5.2930    3.3807   -3.2150 H         1 <0>         0.2611
     33 H9          5.3163    3.3861    3.1548 H         1 <0>         0.2446
     34 H10         6.4611    4.2817    2.3122 H         1 <0>         0.2420
     35 H11         2.3818    0.5251    0.8687 H         1 <0>         0.1182
     36 H12         2.3596    0.5419   -0.9110 H         1 <0>         0.1179
     37 H13        -2.7930    0.3994    0.0285 H         1 <0>         0.1759
     38 H14        -4.5492    2.4357    0.0612 H         1 <0>         0.1633
     39 H15        -3.1617    4.6605    0.0719 H         1 <0>         0.2036
@<TRIPOS>BOND
     1    1    2 1
     2    1   25 1
     3    1   26 1
     4    1   27 1
     5    2    7 ar
     6    2    3 ar
     7    3    4 ar
     8    3   28 1
     9    4    5 ar
    10    4   29 1
    11    5    6 ar
    12    5   30 1
    13    6    7 ar
    14    6   31 1
    15    7    8 1
    16    8    9 1
    17    8   32 1
    18    9   14 ar
    19    9   10 ar
    20   10   11 ar
    21   11   12 ar
    22   11   16 1
    23   12   13 ar
    24   13   14 ar
    25   13   15 1
    26   15   33 1
    27   15   34 1
    28   16   17 1
    29   16   35 1
    30   16   36 1
    31   17   18 1
    32   18   19 2
    33   18   20 1
    34   20   24 1
    35   20   21 2
    36   21   22 1
    37   21   37 1
    38   22   23 2
    39   22   38 1
    40   23   24 1
    41   23   39 1
@<TRIPOS>MOLECULE
ZINC03344605
   39    41     0     0     0
SMALL
USER_CHARGES

@<TRIPOS>ATOM
      1 C1          1.3455   -0.4600    0.7401 C.ar      1 <0>        -0.1256
      2 C2          0.1418    0.2180    0.7637 C.ar      1 <0>        -0.1051
      3 C3         -0.0157    1.3837    0.0294 C.ar      1 <0>         0.0089
      4 C4          1.0407    1.8729   -0.7307 C.ar      1 <0>         0.0367
      5 C5          2.2476    1.1918   -0.7550 C.ar      1 <0>        -0.1548
      6 C6          2.4012    0.0247   -0.0195 C.ar      1 <0>         0.0538
      7 N1          3.6213   -0.6634   -0.0436 N.am      1 <0>        -0.3182
      8 C7          3.6388   -2.0078    0.0501 C.2       1 <0>         0.2955
      9 O1          2.5968   -2.6287    0.0588 O.2       1 <0>        -0.3462
     10 C8          4.9528   -2.7396    0.1441 C.3       1 <0>        -0.0277
     11 N2          4.7039   -4.1804    0.2357 N.pl3     1 <0>        -0.3596
     12 C9          5.7777   -5.0706    0.3327 C.ar      1 <0>         0.1064
     13 C10         7.0811   -4.5905    0.3366 C.ar      1 <0>        -0.1540
     14 C11         8.1399   -5.4711    0.4392 C.ar      1 <0>        -0.1289
     15 C12         7.9035   -6.8328    0.5253 C.ar      1 <0>         0.1038
     16 C13         6.6054   -7.3141    0.5154 C.ar      1 <0>        -0.1045
     17 C14         5.5430   -6.4364    0.4196 C.ar      1 <0>        -0.1280
     18 N3          6.3559   -8.7700    0.6080 N.pl3     1 <0>         0.5505
     19 O2          5.2140   -9.1939    0.5998 O.2       1 <0>        -0.3561
     20 O3          7.2923   -9.5443    0.6925 O.3       1 <0>        -0.3336
     21 F1          8.9410   -7.6930    0.6195 F         1 <0>        -0.0724
     22 O4          0.9077    3.0201   -1.4512 O.3       1 <0>        -0.2054
     23 C15        -0.4274    3.4730   -1.7000 C.3       1 <0>        -0.0514
     24 C16        -1.2142    3.3960   -0.3846 C.3       1 <0>        -0.0524
     25 O5         -1.2120    2.0341    0.0587 O.3       1 <0>        -0.2023
     26 H1          1.4650   -1.3676    1.3132 H         1 <0>         0.1631
     27 H2         -0.6785   -0.1610    1.3552 H         1 <0>         0.1523
     28 H3          3.0687    1.5693   -1.3463 H         1 <0>         0.1449
     29 H4          4.4536   -0.1723   -0.1277 H         1 <0>         0.2338
     30 H5          5.5498   -2.5297   -0.7434 H         1 <0>         0.0997
     31 H6          5.4914   -2.4068    1.0313 H         1 <0>         0.1007
     32 H7          3.7941   -4.5168    0.2290 H         1 <0>         0.2620
     33 H8          7.2661   -3.5289    0.2642 H         1 <0>         0.1428
     34 H9          9.1533   -5.0978    0.4475 H         1 <0>         0.1595
     35 H10         4.5305   -6.8123    0.4119 H         1 <0>         0.1747
     36 H11        -0.4058    4.5032   -2.0555 H         1 <0>         0.1226
     37 H12        -0.8983    2.8357   -2.4485 H         1 <0>         0.0970
     38 H13        -0.7396    4.0289    0.3653 H         1 <0>         0.0942
     39 H14        -2.2397    3.7267   -0.5497 H         1 <0>         0.1235
@<TRIPOS>BOND
     1    1    6 ar
     2    1    2 ar
     3    1   26 1
     4    2    3 ar
     5    2   27 1
     6    3   25 1
     7    3    4 ar
     8    4    5 ar
     9    4   22 1
    10    5    6 ar
    11    5   28 1
    12    6    7 1
    13    7    8 am
    14    7   29 1
    15    8    9 2
    16    8   10 1
    17   10   11 1
    18   10   30 1
    19   10   31 1
    20   11   12 1
    21   11   32 1
    22   12   17 ar
    23   12   13 ar
    24   13   14 ar
    25   13   33 1
    26   14   15 ar
    27   14   34 1
    28   15   16 ar
    29   15   21 1
    30   16   17 ar
    31   16   18 1
    32   17   35 1
    33   18   19 2
    34   18   20 1
    35   22   23 1
    36   23   24 1
    37   23   36 1
    38   23   37 1
    39   24   25 1
    40   24   38 1
    41   24   39 1
@<TRIPOS>MOLECULE
ZINC03346126
   40    42     0     0     0
SMALL
USER_CHARGES

@<TRIPOS>ATOM
      1 C1          9.2049    3.8614   -0.0651 C.3       1 <0>        -0.1480
      2 C2          7.8581    4.5373   -0.0491 C.2       1 <0>        -0.0783
      3 C3          6.6712    3.9081   -0.0412 C.2       1 <0>        -0.1624
      4 C4          5.6444    4.9590   -0.0258 C.2       1 <0>        -0.2557
      5 C5          6.3301    6.1593   -0.0318 C.2       1 <0>         0.0229
      6 N1          7.6496    5.8884   -0.0397 N.pl3     1 <0>        -0.0656
      7 C6          8.6648    6.8548   -0.0448 C.ar      1 <0>         0.0273
      8 C7          8.8256    7.7005    1.0445 C.ar      1 <0>        -0.1195
      9 C8          9.8299    8.6486    1.0386 C.ar      1 <0>        -0.1209
     10 C9         10.6679    8.7633   -0.0554 C.ar      1 <0>        -0.1199
     11 C10        10.5073    7.9256   -1.1438 C.ar      1 <0>        -0.1214
     12 C11         9.5080    6.9720   -1.1415 C.ar      1 <0>        -0.1193
     13 C12         5.7092    7.5325   -0.0263 C.3       1 <0>        -0.1609
     14 C13         4.1921    4.7729   -0.0130 C.2       1 <0>         0.3220
     15 O1          3.4568    5.7382   -0.0012 O.2       1 <0>        -0.3078
     16 C14         3.6105    3.3827   -0.0145 C.3       1 <0>        -0.2955
     17 S1          1.7994    3.4848    0.0031 S.3       1 <0>         0.2691
     18 C15         1.2775    1.8019   -0.0005 C.2       1 <0>        -0.1925
     19 N2         -0.0164    1.3619    0.0095 N.pl3     1 <0>        -0.2476
     20 H1         -0.8089    1.9213    0.0165 H         1 <0>         0.2447
     21 C16         0.0021   -0.0041    0.0020 C.2       1 <0>         0.1204
     22 N3          1.2534   -0.3924   -0.0120 N.2       1 <0>        -0.1638
     23 N4          2.0620    0.7517   -0.0136 N.2       1 <0>        -0.1066
     24 N5         -1.1105   -0.8355    0.0082 N.pl3     1 <0>        -0.4012
     25 H2          9.5203    3.7041   -1.0965 H         1 <0>         0.0857
     26 H3          9.9335    4.4911    0.4456 H         1 <0>         0.0852
     27 H4          9.1352    2.9002    0.4441 H         1 <0>         0.0958
     28 H5          6.5047    2.8410   -0.0455 H         1 <0>         0.1600
     29 H6          8.1683    7.6145    1.8972 H         1 <0>         0.1459
     30 H7          9.9581    9.3040    1.8874 H         1 <0>         0.1387
     31 H8         11.4497    9.5084   -0.0596 H         1 <0>         0.1357
     32 H9         11.1635    8.0173   -1.9966 H         1 <0>         0.1384
     33 H10         9.3830    6.3181   -1.9919 H         1 <0>         0.1456
     34 H11         5.5689    7.8637    1.0026 H         1 <0>         0.0951
     35 H12         6.3657    8.2301   -0.5463 H         1 <0>         0.0820
     36 H13         4.7439    7.4968   -0.5313 H         1 <0>         0.1266
     37 H14         3.9244    2.8892    0.7966 H         1 <0>         0.1281
     38 H15         3.9359    2.8537   -0.9103 H         1 <0>         0.1394
     39 H16        -2.0018   -0.4529    0.0187 H         1 <0>         0.2243
     40 H17        -0.9962   -1.7987    0.0019 H         1 <0>         0.2540
@<TRIPOS>BOND
     1    1    2 1
     2    1   25 1
     3    1   26 1
     4    1   27 1
     5    2    6 1
     6    2    3 2
     7    3    4 1
     8    3   28 1
     9    4    5 2
    10    4   14 1
    11    5    6 1
    12    5   13 1
    13    6    7 1
    14    7   12 ar
    15    7    8 ar
    16    8    9 ar
    17    8   29 1
    18    9   10 ar
    19    9   30 1
    20   10   11 ar
    21   10   31 1
    22   11   12 ar
    23   11   32 1
    24   12   33 1
    25   13   34 1
    26   13   35 1
    27   13   36 1
    28   14   15 2
    29   14   16 1
    30   16   17 1
    31   16   37 1
    32   16   38 1
    33   17   18 1
    34   18   23 2
    35   18   19 1
    36   19   20 1
    37   19   21 1
    38   21   22 2
    39   21   24 1
    40   22   23 1
    41   24   39 1
    42   24   40 1
@<TRIPOS>MOLECULE
ZINC03346440
   40    42     0     0     0
SMALL
USER_CHARGES

@<TRIPOS>ATOM
      1 C1         -5.9450   -2.9335    0.5564 C.3       1 <0>        -0.1744
      2 C2         -6.1654   -1.4459    0.4594 C.ar      1 <0>        -0.0633
      3 C3         -7.4506   -0.9351    0.4812 C.ar      1 <0>        -0.1307
      4 C4         -7.6576    0.4293    0.3920 C.ar      1 <0>        -0.1091
      5 C5         -6.5806    1.2874    0.2874 C.ar      1 <0>        -0.0591
      6 C6         -5.2883    0.7774    0.2598 C.ar      1 <0>        -0.2070
      7 C7         -5.0841   -0.5945    0.3492 C.ar      1 <0>        -0.1489
      8 S1         -3.9114    1.8679    0.1191 S.3       1 <0>         0.2533
      9 C8         -2.4731    0.7627    0.1334 C.3       1 <0>        -0.3220
     10 C9         -1.2114    1.5787    0.0176 C.2       1 <0>         0.3198
     11 O1         -1.2762    2.7869   -0.0663 O.2       1 <0>        -0.3330
     12 N1         -0.0111    0.9658    0.0074 N.am      1 <0>        -0.3227
     13 C10         1.1643    1.7278   -0.0085 C.ar      1 <0>         0.0627
     14 C11         2.2883    1.2838    0.6788 C.ar      1 <0>        -0.1536
     15 C12         3.4508    2.0278    0.6633 C.ar      1 <0>        -0.1087
     16 C13         3.4957    3.2271   -0.0317 C.ar      1 <0>        -0.0135
     17 C14         2.3669    3.6784   -0.7186 C.ar      1 <0>         0.0188
     18 C15         1.2026    2.9264   -0.7051 C.ar      1 <0>        -0.1241
     19 N2          2.7132    4.8912   -1.3097 N.am      1 <0>        -0.2925
     20 H1          2.1308    5.4440   -1.8539 H         1 <0>         0.2714
     21 C16         3.9936    5.1658   -0.9973 C.2       1 <0>         0.3902
     22 O2          4.6061    6.1539   -1.3570 O.2       1 <0>        -0.3827
     23 N3          4.4939    4.1813   -0.2273 N.am      1 <0>        -0.2969
     24 H2          5.3947    4.1422    0.1303 H         1 <0>         0.2675
     25 C17        -6.8069    2.7746    0.1970 C.3       1 <0>        -0.1783
     26 H3         -5.8456   -3.2186    1.6038 H         1 <0>         0.0869
     27 H4         -6.7946   -3.4561    0.1167 H         1 <0>         0.0842
     28 H5         -5.0356   -3.2020    0.0189 H         1 <0>         0.0783
     29 H6         -8.2946   -1.6034    0.5678 H         1 <0>         0.1316
     30 H7         -8.6625    0.8246    0.4091 H         1 <0>         0.1346
     31 H8         -4.0809   -0.9940    0.3330 H         1 <0>         0.1233
     32 H9         -2.5374    0.0717   -0.7072 H         1 <0>         0.1211
     33 H10        -2.4571    0.1993    1.0664 H         1 <0>         0.1230
     34 H11         0.0389   -0.0029    0.0069 H         1 <0>         0.2345
     35 H12         2.2529    0.3518    1.2233 H         1 <0>         0.1363
     36 H13         4.3236    1.6779    1.1945 H         1 <0>         0.1382
     37 H14         0.3277    3.2731   -1.2351 H         1 <0>         0.1726
     38 H15        -6.9108    3.0633   -0.8489 H         1 <0>         0.0927
     39 H16        -7.7156    3.0374    0.7386 H         1 <0>         0.0839
     40 H17        -5.9579    3.2986    0.6360 H         1 <0>         0.0956
@<TRIPOS>BOND
     1    1    2 1
     2    1   26 1
     3    1   27 1
     4    1   28 1
     5    2    7 ar
     6    2    3 ar
     7    3    4 ar
     8    3   29 1
     9    4    5 ar
    10    4   30 1
    11    5    6 ar
    12    5   25 1
    13    6    7 ar
    14    6    8 1
    15    7   31 1
    16    8    9 1
    17    9   10 1
    18    9   32 1
    19    9   33 1
    20   10   11 2
    21   10   12 am
    22   12   13 1
    23   12   34 1
    24   13   18 ar
    25   13   14 ar
    26   14   15 ar
    27   14   35 1
    28   15   16 ar
    29   15   36 1
    30   16   23 1
    31   16   17 ar
    32   17   18 ar
    33   17   19 1
    34   18   37 1
    35   19   20 1
    36   19   21 am
    37   21   22 2
    38   21   23 am
    39   23   24 1
    40   25   38 1
    41   25   39 1
    42   25   40 1
@<TRIPOS>MOLECULE
ZINC03352709
   41    43     0     0     0
SMALL
USER_CHARGES

@<TRIPOS>ATOM
      1 C1         -3.3007   -1.1794    0.5209 C.ar      1 <0>        -0.1574
      2 C2         -4.5602   -0.6076    0.4325 C.ar      1 <0>        -0.0706
      3 C3         -4.6989    0.7556    0.2721 C.ar      1 <0>        -0.1951
      4 C4         -3.5725    1.5659    0.1980 C.ar      1 <0>         0.1367
      5 C5         -2.2958    0.9900    0.2877 C.ar      1 <0>        -0.1597
      6 C6         -2.1723   -0.3929    0.4452 C.ar      1 <0>        -0.0845
      7 C7         -1.0923    1.8382    0.2101 C.2       1 <0>         0.3540
      8 O1         -1.2041    3.0407    0.0680 O.2       1 <0>        -0.3944
      9 N1          0.1317    1.2807    0.2968 N.am      1 <0>        -0.2608
     10 N2          1.2754    2.0860    0.2173 N.pl3     1 <0>        -0.2619
     11 C8          2.5370    1.5107    0.3008 C.2       1 <0>         0.0476
     12 C9          2.7610    0.2241    0.4600 C.2       1 <0>        -0.3098
     13 C10         4.2436   -0.0639    0.5079 C.3       1 <0>        -0.1075
     14 C11         4.9127    1.2087   -0.0607 C.3       1 <0>        -0.1579
     15 C12         3.8357    2.2798    0.2275 C.3       1 <0>        -0.1220
     16 N3         -3.7094    2.9385    0.0366 N.pl3     1 <0>        -0.7949
     17 S1         -4.9645    3.7367    0.7645 S.o2      1 <0>         2.7935
     18 O2         -4.7557    5.1224    0.5288 O.2       1 <0>        -0.8958
     19 O3         -6.1545    3.0677    0.3702 O.2       1 <0>        -0.9135
     20 C13        -4.8006    3.4911    2.5016 C.2       1 <0>        -0.9556
     21 C14        -4.1298    4.2408    3.4101 C.2       1 <0>        -0.0233
     22 C15        -4.1390    3.8530    4.7368 C.2       1 <0>        -0.2090
     23 C16        -4.8184    2.7345    5.0901 C.2       1 <0>        -0.2761
     24 S2         -5.4813    2.1947    3.5229 S.3       1 <0>         0.4403
     25 H1         -3.2034   -2.2477    0.6461 H         1 <0>         0.1361
     26 H2         -5.4387   -1.2332    0.4891 H         1 <0>         0.1409
     27 H3         -5.6838    1.1933    0.2036 H         1 <0>         0.1918
     28 H4         -1.1933   -0.8443    0.5106 H         1 <0>         0.1262
     29 H5          0.2208    0.3215    0.4102 H         1 <0>         0.2556
     30 H6          1.1862    3.0452    0.1039 H         1 <0>         0.2752
     31 H7          1.9886   -0.5261    0.5431 H         1 <0>         0.1255
     32 H8          4.4850   -0.9283   -0.1107 H         1 <0>         0.0835
     33 H9          4.5610   -0.2320    1.5370 H         1 <0>         0.0848
     34 H10         5.0905    1.1115   -1.1317 H         1 <0>         0.0924
     35 H11         5.8389    1.4336    0.4683 H         1 <0>         0.0893
     36 H12         3.7997    3.0091   -0.5817 H         1 <0>         0.0905
     37 H13         4.0376    2.7751    1.1773 H         1 <0>         0.0993
     38 H14        -3.0698    3.4296   -0.5026 H         1 <0>         0.2860
     39 H15        -3.5966    5.1280    3.1021 H         1 <0>         0.1599
     40 H16        -3.6129    4.4327    5.4809 H         1 <0>         0.1499
     41 H17        -4.9324    2.2881    6.0669 H         1 <0>         0.1908
@<TRIPOS>BOND
     1    1    6 ar
     2    1    2 ar
     3    1   25 1
     4    2    3 ar
     5    2   26 1
     6    3    4 ar
     7    3   27 1
     8    4    5 ar
     9    4   16 1
    10    5    6 ar
    11    5    7 1
    12    6   28 1
    13    7    8 2
    14    7    9 am
    15    9   10 1
    16    9   29 1
    17   10   11 1
    18   10   30 1
    19   11   15 1
    20   11   12 2
    21   12   13 1
    22   12   31 1
    23   13   14 1
    24   13   32 1
    25   13   33 1
    26   14   15 1
    27   14   34 1
    28   14   35 1
    29   15   36 1
    30   15   37 1
    31   16   17 1
    32   16   38 1
    33   17   18 2
    34   17   19 2
    35   17   20 1
    36   20   24 1
    37   20   21 2
    38   21   22 1
    39   21   39 1
    40   22   23 2
    41   22   40 1
    42   23   24 1
    43   23   41 1
@<TRIPOS>MOLECULE
ZINC03354854
   43    46     0     0     0
SMALL
USER_CHARGES

@<TRIPOS>ATOM
      1 C1          3.8673   -4.8949    2.8220 C.3       1 <0>        -0.2091
      2 C2          3.4894   -4.5294    1.3852 C.3       1 <0>        -0.1619
      3 C3          2.3978   -3.4574    1.4020 C.3       1 <0>        -0.1847
      4 C4          2.0198   -3.0918   -0.0348 C.3       1 <0>        -0.0092
      5 N1          0.9746   -2.0654   -0.0188 N.am      1 <0>        -0.2669
      6 C5          1.2210   -0.6963   -0.0133 C.ar      1 <0>         0.0797
      7 C6          2.4079    0.0274   -0.0208 C.ar      1 <0>        -0.1624
      8 C7          2.3786    1.4078   -0.0131 C.ar      1 <0>        -0.0793
      9 C8          1.1725    2.0882    0.0021 C.ar      1 <0>        -0.1647
     10 C9         -0.0168    1.3875    0.0097 C.ar      1 <0>        -0.0424
     11 C10         0.0021   -0.0041    0.0020 C.ar      1 <0>        -0.1131
     12 C11        -1.0629   -1.0306    0.0062 C.2       1 <0>        -0.0209
     13 N2         -2.3607   -0.8363    0.0195 N.2       1 <0>        -0.0599
     14 C12        -3.2059   -1.8983    0.0214 C.ar      1 <0>        -0.0468
     15 C13        -2.9799   -2.9785   -0.8458 C.ar      1 <0>        -0.0783
     16 C14        -3.8282   -4.0482   -0.8470 C.ar      1 <0>        -0.1265
     17 C15        -4.9219   -4.0754    0.0118 C.ar      1 <0>         0.0156
     18 C16        -5.1591   -3.0048    0.8825 C.ar      1 <0>        -0.0129
     19 C17        -4.3027   -1.9211    0.8932 C.ar      1 <0>        -0.0849
     20 N3         -6.3095   -3.3204    1.6027 N.am      1 <0>        -0.2954
     21 H1         -6.7224   -2.7680    2.2849 H         1 <0>         0.2686
     22 C18        -6.7492   -4.5239    1.1893 C.2       1 <0>         0.3894
     23 O1         -7.7359   -5.0934    1.6165 O.2       1 <0>        -0.3843
     24 N4         -5.9328   -5.0019    0.2318 N.am      1 <0>        -0.2924
     25 H2         -6.0338   -5.8502   -0.2275 H         1 <0>         0.2683
     26 C19        -0.3435   -2.3275   -0.0079 C.2       1 <0>         0.3097
     27 O2         -0.8548   -3.4305   -0.0093 O.2       1 <0>        -0.3197
     28 H3          4.2366   -4.0083    3.3373 H         1 <0>         0.0738
     29 H4          2.9895   -5.2783    3.3422 H         1 <0>         0.0778
     30 H5          4.6449   -5.6586    2.8101 H         1 <0>         0.0754
     31 H6          3.1200   -5.4160    0.8698 H         1 <0>         0.0843
     32 H7          4.3671   -4.1459    0.8650 H         1 <0>         0.0775
     33 H8          2.7671   -2.5708    1.9173 H         1 <0>         0.0891
     34 H9          1.5200   -3.8408    1.9222 H         1 <0>         0.1013
     35 H10         1.6505   -3.9785   -0.5502 H         1 <0>         0.1131
     36 H11         2.8976   -2.7084   -0.5551 H         1 <0>         0.0942
     37 H12         3.3551   -0.4913   -0.0323 H         1 <0>         0.1360
     38 H13         3.3054    1.9623   -0.0193 H         1 <0>         0.1365
     39 H14         1.1624    3.1681    0.0076 H         1 <0>         0.1386
     40 H15        -0.9581    1.9170    0.0170 H         1 <0>         0.1486
     41 H16        -2.1322   -2.9633   -1.5147 H         1 <0>         0.1514
     42 H17        -3.6492   -4.8762   -1.5169 H         1 <0>         0.1390
     43 H18        -4.4797   -1.0950    1.5661 H         1 <0>         0.1478
@<TRIPOS>BOND
     1    1    2 1
     2    1   28 1
     3    1   29 1
     4    1   30 1
     5    2    3 1
     6    2   31 1
     7    2   32 1
     8    3    4 1
     9    3   33 1
    10    3   34 1
    11    4    5 1
    12    4   35 1
    13    4   36 1
    14    5   26 am
    15    5    6 1
    16    6   11 ar
    17    6    7 ar
    18    7    8 ar
    19    7   37 1
    20    8    9 ar
    21    8   38 1
    22    9   10 ar
    23    9   39 1
    24   10   11 ar
    25   10   40 1
    26   11   12 1
    27   12   13 2
    28   12   26 1
    29   13   14 1
    30   14   19 ar
    31   14   15 ar
    32   15   16 ar
    33   15   41 1
    34   16   17 ar
    35   16   42 1
    36   17   24 1
    37   17   18 ar
    38   18   19 ar
    39   18   20 1
    40   19   43 1
    41   20   21 1
    42   20   22 am
    43   22   23 2
    44   22   24 am
    45   24   25 1
    46   26   27 2
@<TRIPOS>MOLECULE
ZINC03356307
   46    49     0     0     0
SMALL
USER_CHARGES

@<TRIPOS>ATOM
      1 C1          4.7632   -3.9504    0.7664 C.3       1 <0>        -0.2115
      2 C2          3.4894   -4.5294    1.3852 C.3       1 <0>        -0.1155
      3 C3          3.7791   -4.9846    2.8169 C.3       1 <0>        -0.2050
      4 C4          2.3978   -3.4574    1.4020 C.3       1 <0>        -0.1798
      5 C5          2.0198   -3.0918   -0.0348 C.3       1 <0>        -0.0112
      6 N1          0.9746   -2.0654   -0.0188 N.am      1 <0>        -0.2667
      7 C6          1.2210   -0.6963   -0.0133 C.ar      1 <0>         0.0800
      8 C7          2.4079    0.0274   -0.0208 C.ar      1 <0>        -0.1626
      9 C8          2.3786    1.4078   -0.0131 C.ar      1 <0>        -0.0793
     10 C9          1.1725    2.0882    0.0021 C.ar      1 <0>        -0.1648
     11 C10        -0.0168    1.3875    0.0097 C.ar      1 <0>        -0.0424
     12 C11         0.0021   -0.0041    0.0020 C.ar      1 <0>        -0.1133
     13 C12        -1.0629   -1.0306    0.0062 C.2       1 <0>        -0.0209
     14 N2         -2.3607   -0.8363    0.0195 N.2       1 <0>        -0.0601
     15 C13        -3.2059   -1.8983    0.0214 C.ar      1 <0>        -0.0466
     16 C14        -2.9799   -2.9785   -0.8458 C.ar      1 <0>        -0.0783
     17 C15        -3.8282   -4.0482   -0.8470 C.ar      1 <0>        -0.1266
     18 C16        -4.9219   -4.0754    0.0118 C.ar      1 <0>         0.0156
     19 C17        -5.1591   -3.0048    0.8825 C.ar      1 <0>        -0.0129
     20 C18        -4.3027   -1.9211    0.8932 C.ar      1 <0>        -0.0850
     21 N3         -6.3095   -3.3204    1.6027 N.am      1 <0>        -0.2954
     22 H1         -6.7224   -2.7680    2.2849 H         1 <0>         0.2686
     23 C19        -6.7492   -4.5239    1.1893 C.2       1 <0>         0.3894
     24 O1         -7.7359   -5.0934    1.6165 O.2       1 <0>        -0.3844
     25 N4         -5.9328   -5.0019    0.2318 N.am      1 <0>        -0.2924
     26 H2         -6.0338   -5.8502   -0.2275 H         1 <0>         0.2683
     27 C20        -0.3435   -2.3275   -0.0079 C.2       1 <0>         0.3095
     28 O2         -0.8548   -3.4305   -0.0093 O.2       1 <0>        -0.3199
     29 H3          4.5568   -3.6260   -0.2535 H         1 <0>         0.0688
     30 H4          5.0996   -3.0985    1.3575 H         1 <0>         0.0755
     31 H5          5.5409   -4.7140    0.7545 H         1 <0>         0.0784
     32 H6          3.1530   -5.3812    0.7941 H         1 <0>         0.0926
     33 H7          2.8716   -5.3971    3.2577 H         1 <0>         0.0777
     34 H8          4.5568   -5.7483    2.8049 H         1 <0>         0.0761
     35 H9          4.1155   -4.1328    3.4079 H         1 <0>         0.0751
     36 H10         2.7671   -2.5708    1.9173 H         1 <0>         0.0902
     37 H11         1.5200   -3.8408    1.9222 H         1 <0>         0.1009
     38 H12         1.6505   -3.9785   -0.5502 H         1 <0>         0.1130
     39 H13         2.8976   -2.7084   -0.5551 H         1 <0>         0.0975
     40 H14         3.3551   -0.4913   -0.0323 H         1 <0>         0.1360
     41 H15         3.3054    1.9623   -0.0193 H         1 <0>         0.1364
     42 H16         1.1624    3.1681    0.0076 H         1 <0>         0.1385
     43 H17        -0.9581    1.9170    0.0170 H         1 <0>         0.1486
     44 H18        -2.1322   -2.9633   -1.5147 H         1 <0>         0.1514
     45 H19        -3.6492   -4.8762   -1.5169 H         1 <0>         0.1390
     46 H20        -4.4797   -1.0950    1.5661 H         1 <0>         0.1477
@<TRIPOS>BOND
     1    1    2 1
     2    1   29 1
     3    1   30 1
     4    1   31 1
     5    2    3 1
     6    2    4 1
     7    2   32 1
     8    3   33 1
     9    3   34 1
    10    3   35 1
    11    4    5 1
    12    4   36 1
    13    4   37 1
    14    5    6 1
    15    5   38 1
    16    5   39 1
    17    6   27 am
    18    6    7 1
    19    7   12 ar
    20    7    8 ar
    21    8    9 ar
    22    8   40 1
    23    9   10 ar
    24    9   41 1
    25   10   11 ar
    26   10   42 1
    27   11   12 ar
    28   11   43 1
    29   12   13 1
    30   13   14 2
    31   13   27 1
    32   14   15 1
    33   15   20 ar
    34   15   16 ar
    35   16   17 ar
    36   16   44 1
    37   17   18 ar
    38   17   45 1
    39   18   25 1
    40   18   19 ar
    41   19   20 ar
    42   19   21 1
    43   20   46 1
    44   21   22 1
    45   21   23 am
    46   23   24 2
    47   23   25 am
    48   25   26 1
    49   27   28 2
@<TRIPOS>MOLECULE
ZINC03357297
   43    44     0     0     0
SMALL
USER_CHARGES

@<TRIPOS>ATOM
      1 C1         -6.9735   -3.0756    1.8478 C.3       1 <0>        -0.2132
      2 C2         -5.6950   -2.2543    1.6689 C.3       1 <0>        -0.1562
      3 C3         -4.9591   -2.7235    0.4122 C.3       1 <0>        -0.0740
      4 H1         -4.7809   -3.7970    0.4750 H         1 <0>         0.0937
      5 C4         -5.8114   -2.4193   -0.8214 C.3       1 <0>        -0.2053
      6 C5         -3.6411   -2.0011    0.3028 C.ar      1 <0>        -0.0815
      7 C6         -2.4593   -2.7191    0.2951 C.ar      1 <0>        -0.1082
      8 C7         -1.2497   -2.0601    0.1953 C.ar      1 <0>        -0.1575
      9 C8         -1.2211   -0.6745    0.1027 C.ar      1 <0>         0.0540
     10 C9         -2.4096    0.0440    0.1160 C.ar      1 <0>        -0.1226
     11 C10        -3.6160   -0.6215    0.2107 C.ar      1 <0>        -0.1062
     12 N1          0.0021   -0.0041    0.0020 N.am      1 <0>        -0.3222
     13 C11         0.0904    1.1324   -0.7170 C.2       1 <0>         0.3455
     14 O1         -0.8662    1.5220   -1.3582 O.2       1 <0>        -0.3397
     15 C12         1.3518    1.9017   -0.7310 C.ar      1 <0>        -0.1499
     16 C13         2.4524    1.4567    0.0045 C.ar      1 <0>        -0.0464
     17 C14         3.6286    2.1758   -0.0170 C.ar      1 <0>        -0.1497
     18 C15         3.7162    3.3438   -0.7567 C.ar      1 <0>         0.0475
     19 C16         2.6263    3.7932   -1.4836 C.ar      1 <0>        -0.7632
     20 C17         1.4464    3.0793   -1.4749 C.ar      1 <0>         0.0450
     21 S1          2.7476    5.2797   -2.4218 S.o2      1 <0>         2.7633
     22 O2          3.9444    5.1836   -3.1819 O.2       1 <0>        -0.8981
     23 O3          1.4770    5.4846   -3.0241 O.2       1 <0>        -0.9087
     24 N2          2.9677    6.5203   -1.3472 N.pl3     1 <0>        -0.9275
     25 Cl1         5.1983    4.2476   -0.7731 Cl        1 <0>         0.0135
     26 H2         -7.6167   -2.9404    0.9782 H         1 <0>         0.0759
     27 H3         -6.7167   -4.1300    1.9494 H         1 <0>         0.0723
     28 H4         -7.4977   -2.7413    2.7430 H         1 <0>         0.0732
     29 H5         -5.0517   -2.3895    2.5384 H         1 <0>         0.0839
     30 H6         -5.9517   -1.1999    1.5673 H         1 <0>         0.0828
     31 H7         -5.2872   -2.7535   -1.7167 H         1 <0>         0.0793
     32 H8         -6.7647   -2.9418   -0.7422 H         1 <0>         0.0761
     33 H9         -5.9896   -1.3458   -0.8841 H         1 <0>         0.0772
     34 H10        -2.4822   -3.7964    0.3675 H         1 <0>         0.1326
     35 H11        -0.3271   -2.6214    0.1897 H         1 <0>         0.1277
     36 H12        -2.3905    1.1217    0.0482 H         1 <0>         0.1585
     37 H13        -4.5408   -0.0636    0.2170 H         1 <0>         0.1374
     38 H14         0.7869   -0.3570    0.4497 H         1 <0>         0.2301
     39 H15         2.3839    0.5486    0.5851 H         1 <0>         0.1366
     40 H16         4.4818    1.8303    0.5478 H         1 <0>         0.1542
     41 H17         0.5971    3.4306   -2.0421 H         1 <0>         0.1924
     42 H18         3.0061    6.3366   -0.3956 H         1 <0>         0.2304
     43 H19         3.0581    7.4307   -1.6695 H         1 <0>         0.2470
@<TRIPOS>BOND
     1    1    2 1
     2    1   26 1
     3    1   27 1
     4    1   28 1
     5    2    3 1
     6    2   29 1
     7    2   30 1
     8    3    4 1
     9    3    5 1
    10    3    6 1
    11    5   31 1
    12    5   32 1
    13    5   33 1
    14    6   11 ar
    15    6    7 ar
    16    7    8 ar
    17    7   34 1
    18    8    9 ar
    19    8   35 1
    20    9   10 ar
    21    9   12 1
    22   10   11 ar
    23   10   36 1
    24   11   37 1
    25   12   13 am
    26   12   38 1
    27   13   14 2
    28   13   15 1
    29   15   20 ar
    30   15   16 ar
    31   16   17 ar
    32   16   39 1
    33   17   18 ar
    34   17   40 1
    35   18   19 ar
    36   18   25 1
    37   19   20 ar
    38   19   21 1
    39   20   41 1
    40   21   22 2
    41   21   23 2
    42   21   24 1
    43   24   42 1
    44   24   43 1
@<TRIPOS>MOLECULE
ZINC03357298
   43    44     0     0     0
SMALL
USER_CHARGES

@<TRIPOS>ATOM
      1 C1         -7.0955   -3.2483   -0.7732 C.3       1 <0>        -0.2134
      2 C2         -5.8110   -2.4185   -0.8225 C.3       1 <0>        -0.1562
      3 C3         -4.9591   -2.7236    0.4112 C.3       1 <0>        -0.0739
      4 H1         -4.7809   -3.7971    0.4734 H         1 <0>         0.0937
      5 C4         -5.6955   -2.2552    1.6679 C.3       1 <0>        -0.2054
      6 C5         -3.6411   -2.0011    0.3028 C.ar      1 <0>        -0.0816
      7 C6         -2.4593   -2.7191    0.2951 C.ar      1 <0>        -0.1082
      8 C7         -1.2497   -2.0601    0.1953 C.ar      1 <0>        -0.1576
      9 C8         -1.2211   -0.6745    0.1027 C.ar      1 <0>         0.0542
     10 C9         -2.4096    0.0440    0.1160 C.ar      1 <0>        -0.1227
     11 C10        -3.6160   -0.6215    0.2107 C.ar      1 <0>        -0.1062
     12 N1          0.0021   -0.0041    0.0020 N.am      1 <0>        -0.3222
     13 C11         0.0904    1.1324   -0.7170 C.2       1 <0>         0.3456
     14 O1         -0.8662    1.5220   -1.3582 O.2       1 <0>        -0.3403
     15 C12         1.3518    1.9017   -0.7310 C.ar      1 <0>        -0.1508
     16 C13         2.4524    1.4567    0.0045 C.ar      1 <0>        -0.0464
     17 C14         3.6286    2.1758   -0.0170 C.ar      1 <0>        -0.1508
     18 C15         3.7162    3.3438   -0.7567 C.ar      1 <0>         0.0533
     19 C16         2.6263    3.7932   -1.4836 C.ar      1 <0>        -0.7667
     20 C17         1.4464    3.0793   -1.4749 C.ar      1 <0>         0.0427
     21 S1          2.7476    5.2797   -2.4218 S.o2      1 <0>         2.7622
     22 O2          3.9444    5.1836   -3.1819 O.2       1 <0>        -0.9002
     23 O3          1.4770    5.4846   -3.0241 O.2       1 <0>        -0.9052
     24 N2          2.9677    6.5203   -1.3472 N.pl3     1 <0>        -0.9247
     25 Cl1         5.1983    4.2476   -0.7731 Cl        1 <0>         0.0132
     26 H2         -7.6564   -2.9965    0.1269 H         1 <0>         0.0742
     27 H3         -7.7024   -3.0310   -1.6522 H         1 <0>         0.0743
     28 H4         -6.8429   -4.3085   -0.7592 H         1 <0>         0.0720
     29 H5         -6.0636   -1.3583   -0.8365 H         1 <0>         0.0838
     30 H6         -5.2501   -2.6703   -1.7226 H         1 <0>         0.0876
     31 H7         -5.0886   -2.4725    2.5469 H         1 <0>         0.0759
     32 H8         -5.8737   -1.1817    1.6058 H         1 <0>         0.0758
     33 H9         -6.6489   -2.7778    1.7464 H         1 <0>         0.0771
     34 H10        -2.4822   -3.7964    0.3675 H         1 <0>         0.1326
     35 H11        -0.3271   -2.6215    0.1890 H         1 <0>         0.1277
     36 H12        -2.3905    1.1217    0.0482 H         1 <0>         0.1584
     37 H13        -4.5408   -0.0636    0.2170 H         1 <0>         0.1373
     38 H14         0.7869   -0.3570    0.4497 H         1 <0>         0.2302
     39 H15         2.3839    0.5486    0.5851 H         1 <0>         0.1362
     40 H16         4.4818    1.8303    0.5478 H         1 <0>         0.1540
     41 H17         0.5971    3.4306   -2.0421 H         1 <0>         0.1915
     42 H18         3.4707    7.3067   -1.6107 H         1 <0>         0.2473
     43 H19         2.5935    6.4606   -0.4543 H         1 <0>         0.2314
@<TRIPOS>BOND
     1    1    2 1
     2    1   26 1
     3    1   27 1
     4    1   28 1
     5    2    3 1
     6    2   29 1
     7    2   30 1
     8    3    4 1
     9    3    5 1
    10    3    6 1
    11    5   31 1
    12    5   32 1
    13    5   33 1
    14    6   11 ar
    15    6    7 ar
    16    7    8 ar
    17    7   34 1
    18    8    9 ar
    19    8   35 1
    20    9   10 ar
    21    9   12 1
    22   10   11 ar
    23   10   36 1
    24   11   37 1
    25   12   13 am
    26   12   38 1
    27   13   14 2
    28   13   15 1
    29   15   20 ar
    30   15   16 ar
    31   16   17 ar
    32   16   39 1
    33   17   18 ar
    34   17   40 1
    35   18   19 ar
    36   18   25 1
    37   19   20 ar
    38   19   21 1
    39   20   41 1
    40   21   22 2
    41   21   23 2
    42   21   24 1
    43   24   42 1
    44   24   43 1
@<TRIPOS>MOLECULE
ZINC03357945
   46    47     0     0     0
SMALL
USER_CHARGES

@<TRIPOS>ATOM
      1 C1          0.9098    4.1002   -1.4399 C.3       1 <0>        -0.1977
      2 C2          1.1432    3.5928   -0.0155 C.3       1 <0>        -0.0293
      3 C3          0.0133    4.0833    0.8921 C.3       1 <0>        -0.2035
      4 C4          2.4809    4.1247    0.5026 C.3       1 <0>        -0.1977
      5 C5          1.1682    2.0860   -0.0167 C.ar      1 <0>        -0.0780
      6 C6          2.1113    1.4123   -0.7709 C.ar      1 <0>        -0.1064
      7 C7          2.1370    0.0314   -0.7742 C.ar      1 <0>        -0.1230
      8 C8          1.2143   -0.6805   -0.0189 C.ar      1 <0>         0.0591
      9 C9          0.2684   -0.0009    0.7374 C.ar      1 <0>        -0.1601
     10 C10         0.2481    1.3801    0.7364 C.ar      1 <0>        -0.1137
     11 N1          1.2373   -2.0795   -0.0204 N.am      1 <0>        -0.3319
     12 C11         2.4096   -2.7341   -0.1369 C.2       1 <0>         0.2941
     13 O1          3.4521   -2.1143   -0.1440 O.2       1 <0>        -0.2958
     14 C12         2.4252   -4.2361   -0.2581 C.3       1 <0>        -0.0436
     15 O2          3.7753   -4.6912   -0.3682 O.3       1 <0>        -0.1337
     16 C13         3.9666   -6.0290   -0.4859 C.ar      1 <0>         0.1512
     17 C14         2.8796   -6.8906   -0.4899 C.ar      1 <0>        -0.2386
     18 C15         3.0755   -8.2514   -0.6155 C.ar      1 <0>        -0.0645
     19 C16         4.3564   -8.7677   -0.7268 C.ar      1 <0>        -0.1769
     20 C17         5.4480   -7.9269   -0.7189 C.ar      1 <0>        -0.0679
     21 C18         5.2638   -6.5473   -0.5982 C.ar      1 <0>        -0.1548
     22 C19         6.4282   -5.6413   -0.5886 C.2       1 <0>         0.3429
     23 O3          6.2639   -4.4412   -0.4830 O.2       1 <0>        -0.3277
     24 N2          7.6740   -6.1440   -0.6968 N.am      1 <0>        -0.4360
     25 H1         -0.0432    3.7212   -1.8090 H         1 <0>         0.0770
     26 H2          0.8917    5.1900   -1.4390 H         1 <0>         0.0739
     27 H3          1.7148    3.7507   -2.0865 H         1 <0>         0.0762
     28 H4          0.1795    3.7219    1.9069 H         1 <0>         0.0774
     29 H5         -0.0048    5.1732    0.8930 H         1 <0>         0.0750
     30 H6         -0.9397    3.7044    0.5230 H         1 <0>         0.0752
     31 H7          3.2858    3.7753   -0.1439 H         1 <0>         0.0777
     32 H8          2.4628    5.2146    0.5035 H         1 <0>         0.0730
     33 H9          2.6471    3.7633    1.5174 H         1 <0>         0.0805
     34 H10         2.8315    1.9666   -1.3546 H         1 <0>         0.1367
     35 H11         2.8736   -0.4942   -1.3637 H         1 <0>         0.1622
     36 H12        -0.4507   -0.5517    1.3255 H         1 <0>         0.1262
     37 H13        -0.4870    1.9092    1.3247 H         1 <0>         0.1372
     38 H14         0.4094   -2.5783    0.0623 H         1 <0>         0.2269
     39 H15         1.9642   -4.6768    0.6259 H         1 <0>         0.0915
     40 H16         1.8676   -4.5348   -1.1458 H         1 <0>         0.0926
     41 H17         1.8783   -6.4960   -0.3991 H         1 <0>         0.1348
     42 H18         2.2257   -8.9177   -0.6223 H         1 <0>         0.1326
     43 H19         4.4999   -9.8341   -0.8198 H         1 <0>         0.1343
     44 H20         6.4446   -8.3339   -0.8055 H         1 <0>         0.1309
     45 H21         7.8051   -7.1014   -0.7811 H         1 <0>         0.2100
     46 H22         8.4396   -5.5484   -0.6905 H         1 <0>         0.2316
@<TRIPOS>BOND
     1    1    2 1
     2    1   25 1
     3    1   26 1
     4    1   27 1
     5    2    3 1
     6    2    4 1
     7    2    5 1
     8    3   28 1
     9    3   29 1
    10    3   30 1
    11    4   31 1
    12    4   32 1
    13    4   33 1
    14    5   10 ar
    15    5    6 ar
    16    6    7 ar
    17    6   34 1
    18    7    8 ar
    19    7   35 1
    20    8    9 ar
    21    8   11 1
    22    9   10 ar
    23    9   36 1
    24   10   37 1
    25   11   12 am
    26   11   38 1
    27   12   13 2
    28   12   14 1
    29   14   15 1
    30   14   39 1
    31   14   40 1
    32   15   16 1
    33   16   21 ar
    34   16   17 ar
    35   17   18 ar
    36   17   41 1
    37   18   19 ar
    38   18   42 1
    39   19   20 ar
    40   19   43 1
    41   20   21 ar
    42   20   44 1
    43   21   22 1
    44   22   23 2
    45   22   24 am
    46   24   45 1
    47   24   46 1
@<TRIPOS>MOLECULE
ZINC03364172
   45    47     0     0     0
SMALL
USER_CHARGES

@<TRIPOS>ATOM
      1 C1         -2.4481    3.9758   -2.4168 C.3       1 <0>        -0.2116
      2 C2         -2.5168    5.4963   -2.5722 C.3       1 <0>        -0.0155
      3 O1         -1.2764    6.0738   -2.1599 O.3       1 <0>        -0.1900
      4 C3         -1.1700    7.4272   -2.2360 C.ar      1 <0>         0.1148
      5 C4         -2.2379    8.1833   -2.6917 C.ar      1 <0>        -0.2225
      6 C5         -2.1261    9.5587   -2.7742 C.ar      1 <0>        -0.0817
      7 C6         -0.9521   10.1845   -2.3974 C.ar      1 <0>        -0.1686
      8 C7          0.1155    9.4382   -1.9359 C.ar      1 <0>        -0.0823
      9 C8          0.0108    8.0576   -1.8504 C.ar      1 <0>         0.0323
     10 N1          1.0919    7.2987   -1.3827 N.am      1 <0>        -0.2955
     11 C9          1.3125    6.9521    0.0262 C.3       1 <0>         0.0004
     12 C10         2.3262    5.7866    0.0102 C.3       1 <0>        -0.1511
     13 H1          3.0169    5.8587    0.8503 H         1 <0>         0.1257
     14 C11         3.0582    6.0239   -1.3310 C.3       1 <0>        -0.1937
     15 C12         2.0605    6.7949   -2.1669 C.2       1 <0>         0.3170
     16 O2          2.1255    6.9383   -3.3696 O.2       1 <0>        -0.3345
     17 C13         1.6184    4.4561    0.0102 C.2       1 <0>         0.2986
     18 O3          0.4064    4.4140    0.0219 O.2       1 <0>        -0.3251
     19 N2          2.3323    3.3130   -0.0028 N.am      1 <0>        -0.2612
     20 C14         1.6810    2.0888   -0.0028 C.2       1 <0>        -0.0821
     21 C15         2.2370    0.8151   -0.0149 C.2       1 <0>        -0.2763
     22 C16         1.3152   -0.2957   -0.0121 C.2       1 <0>        -0.1260
     23 C17         0.0021   -0.0041    0.0020 C.2       1 <0>        -0.3803
     24 S1         -0.0221    1.7765    0.0118 S.3       1 <0>         0.4980
     25 C18         3.6887    0.6097   -0.0304 C.2       1 <0>         0.3852
     26 O4          4.4389    1.5681   -0.0328 O.2       1 <0>        -0.4158
     27 N3          4.1924   -0.6403   -0.0418 N.am      1 <0>        -0.4221
     28 H2         -1.6411    3.5834   -3.0356 H         1 <0>         0.0909
     29 H3         -2.2599    3.7254   -1.3728 H         1 <0>         0.0962
     30 H4         -3.3942    3.5353   -2.7313 H         1 <0>         0.0808
     31 H5         -3.3237    5.8887   -1.9534 H         1 <0>         0.0705
     32 H6         -2.7049    5.7467   -3.6163 H         1 <0>         0.0735
     33 H7         -3.1563    7.6976   -2.9868 H         1 <0>         0.1386
     34 H8         -2.9579   10.1460   -3.1343 H         1 <0>         0.1305
     35 H9         -0.8694   11.2593   -2.4636 H         1 <0>         0.1331
     36 H10         1.0313    9.9296   -1.6423 H         1 <0>         0.1392
     37 H11         0.3777    6.6326    0.4869 H         1 <0>         0.1261
     38 H12         1.7261    7.8043    0.5654 H         1 <0>         0.0859
     39 H13         3.9610    6.6141   -1.1737 H         1 <0>         0.1229
     40 H14         3.3007    5.0736   -1.8067 H         1 <0>         0.1265
     41 H15         3.3017    3.3467   -0.0122 H         1 <0>         0.2767
     42 H16         1.6649   -1.3175   -0.0213 H         1 <0>         0.1375
     43 H17        -0.8357   -0.6856    0.0067 H         1 <0>         0.1872
     44 H18         3.5945   -1.4041   -0.0399 H         1 <0>         0.2182
     45 H19         5.1528   -0.7762   -0.0520 H         1 <0>         0.2295
@<TRIPOS>BOND
     1    1    2 1
     2    1   28 1
     3    1   29 1
     4    1   30 1
     5    2    3 1
     6    2   31 1
     7    2   32 1
     8    3    4 1
     9    4    9 ar
    10    4    5 ar
    11    5    6 ar
    12    5   33 1
    13    6    7 ar
    14    6   34 1
    15    7    8 ar
    16    7   35 1
    17    8    9 ar
    18    8   36 1
    19    9   10 1
    20   10   15 am
    21   10   11 1
    22   11   12 1
    23   11   37 1
    24   11   38 1
    25   12   13 1
    26   12   14 1
    27   12   17 1
    28   14   15 1
    29   14   39 1
    30   14   40 1
    31   15   16 2
    32   17   18 2
    33   17   19 am
    34   19   20 1
    35   19   41 1
    36   20   24 1
    37   20   21 2
    38   21   22 1
    39   21   25 1
    40   22   23 2
    41   22   42 1
    42   23   24 1
    43   23   43 1
    44   25   26 2
    45   25   27 am
    46   27   44 1
    47   27   45 1
@<TRIPOS>MOLECULE
ZINC03365833
   47    49     0     0     0
SMALL
USER_CHARGES

@<TRIPOS>ATOM
      1 C1        -10.8423    0.3233    1.4329 C.3       1 <0>        -0.1438
      2 C2         -9.4236   -0.1197    1.1837 C.2       1 <0>        -0.1619
      3 C3         -9.1163   -1.4926    1.0679 C.2       1 <0>         0.2819
      4 O1         -9.9874   -2.3403    1.1675 O.2       1 <0>        -0.3551
      5 N1         -7.8286   -1.8420    0.8438 N.am      1 <0>        -0.1489
      6 C4         -6.8943   -0.8547    0.7411 C.2       1 <0>        -0.0811
      7 N2         -7.2451    0.4147    0.8645 N.2       1 <0>        -0.1681
      8 N3         -8.4630    0.7677    1.0720 N.2       1 <0>         0.0008
      9 S1         -5.2075   -1.2725    0.4495 S.3       1 <0>         0.3236
     10 C5         -4.4758    0.3826    0.4118 C.3       1 <0>        -0.3109
     11 C6         -2.9929    0.2708    0.1678 C.2       1 <0>         0.2885
     12 O2         -2.4801   -0.8227    0.0324 O.2       1 <0>        -0.3281
     13 C7         -2.2049    1.4282    0.0969 C.2       1 <0>        -0.3894
     14 C8         -0.8580    1.3253   -0.0167 C.2       1 <0>         0.1757
     15 C9         -0.0548    0.0442   -0.0916 C.3       1 <0>         0.0033
     16 C10         1.3769    0.5122   -0.2158 C.ar      1 <0>        -0.1204
     17 C11         2.5728   -0.1624   -0.3236 C.ar      1 <0>        -0.0738
     18 C12         3.7579    0.5446   -0.4261 C.ar      1 <0>        -0.1510
     19 C13         3.7369    1.9276   -0.4196 C.ar      1 <0>        -0.0986
     20 C14         2.5411    2.6061   -0.3114 C.ar      1 <0>        -0.1536
     21 C15         1.3427    1.9008   -0.2081 C.ar      1 <0>         0.0528
     22 N4          0.0295    2.3533   -0.0912 N.pl3     1 <0>        -0.2148
     23 C16        -0.3497    3.7678   -0.0530 C.3       1 <0>        -0.0611
     24 C17        -0.2403   -0.7797    1.1842 C.3       1 <0>        -0.1903
     25 C18        -0.4604   -0.7712   -1.3211 C.3       1 <0>        -0.1885
     26 N5         -7.4727   -3.1552    0.7225 N.3       1 <0>        -0.2282
     27 H1        -11.0216    0.3810    2.5065 H         1 <0>         0.0984
     28 H2        -11.0007    1.3042    0.9848 H         1 <0>         0.0979
     29 H3        -11.5307   -0.3950    0.9876 H         1 <0>         0.1039
     30 H4         -4.6361    0.8379    1.2876 H         1 <0>         0.1321
     31 H5         -4.9330    0.9638   -0.3890 H         1 <0>         0.1391
     32 H6         -2.6710    2.4018    0.1329 H         1 <0>         0.1408
     33 H7          2.5856   -1.2424   -0.3287 H         1 <0>         0.1375
     34 H8          4.6969    0.0179   -0.5108 H         1 <0>         0.1355
     35 H9          4.6620    2.4791   -0.5000 H         1 <0>         0.1348
     36 H10         2.5328    3.6861   -0.3070 H         1 <0>         0.1301
     37 H11        -0.3538    4.1152    0.9801 H         1 <0>         0.0845
     38 H12         0.3674    4.3519   -0.6299 H         1 <0>         0.0927
     39 H13        -1.3448    3.8889   -0.4810 H         1 <0>         0.0967
     40 H14        -1.2973   -0.8062    1.4491 H         1 <0>         0.1111
     41 H15         0.1177   -1.7954    1.0161 H         1 <0>         0.0854
     42 H16         0.3265   -0.3245    1.9963 H         1 <0>         0.0715
     43 H17         0.0705   -0.3971   -2.1964 H         1 <0>         0.0688
     44 H18        -0.2060   -1.8191   -1.1622 H         1 <0>         0.0865
     45 H19        -1.5347   -0.6782   -1.4805 H         1 <0>         0.1140
     46 H20        -8.2755   -3.7582    0.8226 H         1 <0>         0.2084
     47 H21        -7.0016   -3.3228   -0.1539 H         1 <0>         0.1714
@<TRIPOS>BOND
     1    1    2 1
     2    1   27 1
     3    1   28 1
     4    1   29 1
     5    2    8 2
     6    2    3 1
     7    3    4 2
     8    3    5 am
     9    5    6 1
    10    5   26 1
    11    6    7 2
    12    6    9 1
    13    7    8 1
    14    9   10 1
    15   10   11 1
    16   10   30 1
    17   10   31 1
    18   11   12 2
    19   11   13 1
    20   13   14 2
    21   13   32 1
    22   14   22 1
    23   14   15 1
    24   15   16 1
    25   15   24 1
    26   15   25 1
    27   16   21 ar
    28   16   17 ar
    29   17   18 ar
    30   17   33 1
    31   18   19 ar
    32   18   34 1
    33   19   20 ar
    34   19   35 1
    35   20   21 ar
    36   20   36 1
    37   21   22 1
    38   22   23 1
    39   23   37 1
    40   23   38 1
    41   23   39 1
    42   24   40 1
    43   24   41 1
    44   24   42 1
    45   25   43 1
    46   25   44 1
    47   25   45 1
    48   26   46 1
    49   26   47 1
@<TRIPOS>MOLECULE
ZINC03367199
   38    39     0     0     0
SMALL
USER_CHARGES

@<TRIPOS>ATOM
      1 C1          6.2046   11.5921    0.7274 C.3       1 <0>        -0.0695
      2 O1          6.1781   10.1686    0.6060 O.3       1 <0>        -0.1650
      3 C2          7.3742    9.5369    0.5040 C.ar      1 <0>         0.1595
      4 C3          8.5523   10.2688    0.5205 C.ar      1 <0>        -0.2325
      5 C4          9.7689    9.6244    0.4174 C.ar      1 <0>        -0.0599
      6 C5          9.8238    8.2451    0.2966 C.ar      1 <0>        -0.1776
      7 C6          8.6641    7.5017    0.2833 C.ar      1 <0>        -0.0697
      8 C7          7.4253    8.1412    0.3819 C.ar      1 <0>        -0.1707
      9 C8          6.1799    7.3523    0.3636 C.2       1 <0>         0.3406
     10 O2          5.1048    7.9118    0.4546 O.2       1 <0>        -0.2594
     11 N1          6.2337    6.0108    0.2461 N.am      1 <0>        -0.3651
     12 C9          5.0953    5.2896    0.2294 C.2       1 <0>         0.2837
     13 O3          4.0228    5.8476    0.3202 O.2       1 <0>        -0.2453
     14 C10         5.1554    3.7895    0.0980 C.3       1 <0>        -0.0339
     15 O4          3.8079    3.2486    0.1052 O.3       1 <0>        -0.1954
     16 C11         3.6850    1.9114   -0.0050 C.2       1 <0>         0.3932
     17 O5          4.6764    1.2164   -0.1043 O.2       1 <0>        -0.3988
     18 C12         2.3456    1.2909   -0.0050 C.ar      1 <0>        -0.1788
     19 C13         2.2156   -0.1081   -0.0012 C.ar      1 <0>         0.1858
     20 N2          1.0055   -0.6556   -0.0008 N.ar      1 <0>        -0.2135
     21 C14        -0.0672    0.1145   -0.0039 C.ar      1 <0>        -0.0161
     22 C15         0.0619    1.4963   -0.0076 C.ar      1 <0>        -0.1856
     23 N3          1.2556    2.0534   -0.0080 N.ar      1 <0>        -0.0301
     24 N4          3.3412   -0.9105    0.0025 N.pl3     1 <0>        -0.3722
     25 H1          5.1846   11.9696    0.8005 H         1 <0>         0.1195
     26 H2          6.7600   11.8701    1.6232 H         1 <0>         0.0671
     27 H3          6.6893   12.0226   -0.1488 H         1 <0>         0.0671
     28 H4          8.5178   11.3441    0.6143 H         1 <0>         0.1434
     29 H5         10.6834   10.1988    0.4315 H         1 <0>         0.1345
     30 H6         10.7805    7.7503    0.2166 H         1 <0>         0.1351
     31 H7          8.7119    6.4265    0.1931 H         1 <0>         0.1248
     32 H8          7.0918    5.5643    0.1734 H         1 <0>         0.2253
     33 H9          5.7183    3.3738    0.9337 H         1 <0>         0.1067
     34 H10         5.6476    3.5263   -0.8383 H         1 <0>         0.1074
     35 H11        -1.0500   -0.3333   -0.0039 H         1 <0>         0.1702
     36 H12        -0.8211    2.1182   -0.0147 H         1 <0>         0.1755
     37 H13         3.2506   -1.8728    0.0843 H         1 <0>         0.2284
     38 H14         4.2217   -0.5113   -0.0767 H         1 <0>         0.2713
@<TRIPOS>BOND
     1    1    2 1
     2    1   25 1
     3    1   26 1
     4    1   27 1
     5    2    3 1
     6    3    8 ar
     7    3    4 ar
     8    4    5 ar
     9    4   28 1
    10    5    6 ar
    11    5   29 1
    12    6    7 ar
    13    6   30 1
    14    7    8 ar
    15    7   31 1
    16    8    9 1
    17    9   10 2
    18    9   11 am
    19   11   12 am
    20   11   32 1
    21   12   13 2
    22   12   14 1
    23   14   15 1
    24   14   33 1
    25   14   34 1
    26   15   16 1
    27   16   17 2
    28   16   18 1
    29   18   23 ar
    30   18   19 ar
    31   19   20 ar
    32   19   24 1
    33   20   21 ar
    34   21   22 ar
    35   21   35 1
    36   22   23 ar
    37   22   36 1
    38   24   37 1
    39   24   38 1
@<TRIPOS>MOLECULE
ZINC03370728
   40    42     0     0     0
SMALL
USER_CHARGES

@<TRIPOS>ATOM
      1 C1          4.3039   -3.0007   -8.7846 C.3       1 <0>        -0.1447
      2 C2          3.2980   -2.3119   -7.8986 C.2       1 <0>        -0.1574
      3 C3          2.2239   -1.5929   -8.4660 C.2       1 <0>         0.2818
      4 O1          2.0912   -1.5156   -9.6758 O.2       1 <0>        -0.3512
      5 N1          1.3460   -0.9916   -7.6305 N.am      1 <0>        -0.1477
      6 C4          1.5409   -1.1090   -6.2865 C.2       1 <0>        -0.0854
      7 N2          2.5711   -1.7928   -5.8165 N.2       1 <0>        -0.1740
      8 N3          3.4129   -2.3757   -6.5927 N.2       1 <0>        -0.0001
      9 S1          0.4177   -0.3391   -5.1683 S.3       1 <0>         0.3494
     10 C5          1.1617   -0.8246   -3.5913 C.3       1 <0>        -0.3197
     11 C6          0.3455   -0.2618   -2.4564 C.2       1 <0>         0.3339
     12 O2         -0.6420    0.4023   -2.6907 O.2       1 <0>        -0.3463
     13 N4          0.7129   -0.4963   -1.1811 N.am      1 <0>        -0.2649
     14 C7          1.8293   -1.2457   -0.7897 C.ar      1 <0>         0.0515
     15 C8          2.7797   -1.8954   -1.5798 C.ar      1 <0>        -0.1742
     16 C9          3.8149   -2.5900   -0.9918 C.ar      1 <0>        -0.0923
     17 C10         3.9199   -2.6487    0.3860 C.ar      1 <0>        -0.1496
     18 C11         2.9829   -2.0081    1.1748 C.ar      1 <0>        -0.0847
     19 C12         1.9434   -1.3105    0.5897 C.ar      1 <0>        -0.1218
     20 C13         0.8011   -0.5332    1.2042 C.3       1 <0>        -0.1277
     21 C14         0.0021   -0.0041    0.0020 C.3       1 <0>         0.0404
     22 H1         -1.0150   -0.3955    0.0221 H         1 <0>         0.1114
     23 C15        -0.0187    1.5258    0.0104 C.3       1 <0>        -0.2304
     24 N5          0.2877   -0.2820   -8.1229 N.3       1 <0>        -0.2281
     25 H2          5.1214   -2.3151   -9.0075 H         1 <0>         0.0997
     26 H3          4.6962   -3.8800   -8.2736 H         1 <0>         0.0988
     27 H4          3.8215   -3.3053   -9.7134 H         1 <0>         0.1050
     28 H5          2.1788   -0.4367   -3.5347 H         1 <0>         0.1530
     29 H6          1.1830   -1.9120   -3.5192 H         1 <0>         0.1489
     30 H7          2.7032   -1.8537   -2.6563 H         1 <0>         0.1498
     31 H8          4.5463   -3.0905   -1.6090 H         1 <0>         0.1403
     32 H9          4.7317   -3.1939    0.8444 H         1 <0>         0.1354
     33 H10         3.0636   -2.0526    2.2508 H         1 <0>         0.1332
     34 H11         1.1826    0.2950    1.8014 H         1 <0>         0.1066
     35 H12         0.1801   -1.1888    1.8146 H         1 <0>         0.1029
     36 H13         1.0039    1.9031    0.0027 H         1 <0>         0.0838
     37 H14        -0.5459    1.8868   -0.8726 H         1 <0>         0.1087
     38 H15        -0.5289    1.8773    0.9072 H         1 <0>         0.0837
     39 H16         0.2847   -0.2906   -9.1319 H         1 <0>         0.2099
     40 H17        -0.5845   -0.6319   -7.7557 H         1 <0>         0.1720
@<TRIPOS>BOND
     1    1    2 1
     2    1   25 1
     3    1   26 1
     4    1   27 1
     5    2    8 2
     6    2    3 1
     7    3    4 2
     8    3    5 am
     9    5    6 1
    10    5   24 1
    11    6    7 2
    12    6    9 1
    13    7    8 1
    14    9   10 1
    15   10   11 1
    16   10   28 1
    17   10   29 1
    18   11   12 2
    19   11   13 am
    20   13   21 1
    21   13   14 1
    22   14   19 ar
    23   14   15 ar
    24   15   16 ar
    25   15   30 1
    26   16   17 ar
    27   16   31 1
    28   17   18 ar
    29   17   32 1
    30   18   19 ar
    31   18   33 1
    32   19   20 1
    33   20   21 1
    34   20   34 1
    35   20   35 1
    36   21   22 1
    37   21   23 1
    38   23   36 1
    39   23   37 1
    40   23   38 1
    41   24   39 1
    42   24   40 1
@<TRIPOS>MOLECULE
ZINC03375427
   41    44     0     0     0
SMALL
USER_CHARGES

@<TRIPOS>ATOM
      1 C1         -0.0126    1.0758    0.0080 C.ar      1 <0>        -0.1019
      2 C2         -1.2348    1.7457    0.0174 C.ar      1 <0>        -0.1326
      3 C3         -1.2884    3.1055    0.0306 C.ar      1 <0>        -0.0976
      4 C4         -0.0955    3.8485    0.0228 C.ar      1 <0>        -0.0638
      5 C5         -0.1110    5.2538    0.0301 C.ar      1 <0>         0.0141
      6 C6          1.0641    5.9402    0.0216 C.ar      1 <0>        -0.7608
      7 C7          2.2863    5.2704    0.0066 C.ar      1 <0>        -0.0473
      8 C8          2.3400    3.9105   -0.0003 C.ar      1 <0>        -0.1266
      9 C9          1.1472    3.1674    0.0076 C.ar      1 <0>         0.0090
     10 C10         1.1626    1.7621    0.0004 C.ar      1 <0>        -0.1289
     11 S1          1.0401    7.7020    0.0302 S.o2      1 <0>         2.7464
     12 O1         -0.2053    8.0885    0.5949 O.2       1 <0>        -0.8974
     13 O2          2.2850    8.1225    0.5711 O.2       1 <0>        -0.8962
     14 N1          1.0182    8.1991   -1.5493 N.pl3     1 <0>        -0.7526
     15 C11        -0.0704    7.9093   -2.3499 C.2       1 <0>        -0.1203
     16 C12        -0.2741    8.2412   -3.6797 C.2       1 <0>        -0.2125
     17 C13        -1.5255    7.8056   -4.3015 C.2       1 <0>        -0.0793
     18 C14        -2.3582    7.1267   -3.4939 C.2       1 <0>        -0.3188
     19 S2         -1.5137    7.0501   -1.9332 S.3       1 <0>         0.4436
     20 C15        -3.6211    6.7161   -4.2018 C.3       1 <0>        -0.0708
     21 C16        -3.2883    6.8563   -5.7037 C.3       1 <0>        -0.1582
     22 C17        -2.1764    7.9239   -5.6803 C.3       1 <0>        -0.1010
     23 C18         0.7271    8.9963   -4.4361 C.2       1 <0>         0.3631
     24 O3          1.6006    8.4074   -5.0462 O.2       1 <0>        -0.3601
     25 N2          0.6816   10.3431   -4.4566 N.am      1 <0>        -0.4265
     26 H1          0.0021   -0.0041    0.0020 H         1 <0>         0.1328
     27 H2         -2.1530    1.1771    0.0187 H         1 <0>         0.1331
     28 H3         -2.2427    3.6110    0.0417 H         1 <0>         0.1367
     29 H4         -1.0506    5.7862    0.0423 H         1 <0>         0.1547
     30 H5          3.2044    5.8390    0.0008 H         1 <0>         0.1494
     31 H6          3.2944    3.4051   -0.0123 H         1 <0>         0.1409
     32 H7          2.1021    1.2296   -0.0114 H         1 <0>         0.1383
     33 H8          1.7694    8.6937   -1.9125 H         1 <0>         0.2668
     34 H9         -3.8721    5.6827   -3.9628 H         1 <0>         0.0916
     35 H10        -4.4420    7.3801   -3.9307 H         1 <0>         0.0977
     36 H11        -2.9174    5.9155   -6.1105 H         1 <0>         0.0977
     37 H12        -4.1549    7.2068   -6.2643 H         1 <0>         0.0932
     38 H13        -1.4437    7.7225   -6.4618 H         1 <0>         0.1017
     39 H14        -2.6047    8.9175   -5.8126 H         1 <0>         0.0942
     40 H15        -0.0144   10.8123   -3.9705 H         1 <0>         0.2203
     41 H16         1.3448   10.8432   -4.9576 H         1 <0>         0.2280
@<TRIPOS>BOND
     1    1   10 ar
     2    1    2 ar
     3    1   26 1
     4    2    3 ar
     5    2   27 1
     6    3    4 ar
     7    3   28 1
     8    4    9 ar
     9    4    5 ar
    10    5    6 ar
    11    5   29 1
    12    6    7 ar
    13    6   11 1
    14    7    8 ar
    15    7   30 1
    16    8    9 ar
    17    8   31 1
    18    9   10 ar
    19   10   32 1
    20   11   12 2
    21   11   13 2
    22   11   14 1
    23   14   15 1
    24   14   33 1
    25   15   19 1
    26   15   16 2
    27   16   17 1
    28   16   23 1
    29   17   22 1
    30   17   18 2
    31   18   19 1
    32   18   20 1
    33   20   21 1
    34   20   34 1
    35   20   35 1
    36   21   22 1
    37   21   36 1
    38   21   37 1
    39   22   38 1
    40   22   39 1
    41   23   24 2
    42   23   25 am
    43   25   40 1
    44   25   41 1
@<TRIPOS>MOLECULE
ZINC03378050
   38    39     0     0     0
SMALL
USER_CHARGES

@<TRIPOS>ATOM
      1 C1         -0.9878    7.4152   -0.7176 C.3       1 <0>        -0.2359
      2 C2         -1.0340    5.9115   -0.6291 C.2       1 <0>         0.2993
      3 O1         -1.9438    5.3011   -1.1493 O.2       1 <0>        -0.3461
      4 N1         -0.0642    5.2450    0.0281 N.am      1 <0>        -0.3292
      5 C3         -0.0538    3.8459    0.0284 C.ar      1 <0>         0.0958
      6 C4          1.1538    3.1593    0.0110 C.ar      1 <0>        -0.1973
      7 C5          1.1641    1.7781    0.0109 C.ar      1 <0>        -0.0726
      8 C6         -0.0261    1.0756    0.0277 C.ar      1 <0>        -0.2416
      9 C7         -1.2354    1.7561    0.0398 C.ar      1 <0>         0.1090
     10 C8         -1.2497    3.1423    0.0458 C.ar      1 <0>        -0.1512
     11 O2         -2.4049    1.0641    0.0507 O.3       1 <0>        -0.1758
     12 C9         -2.3149   -0.3621    0.0489 C.3       1 <0>        -0.0281
     13 C10        -3.7011   -0.9530    0.0620 C.2       1 <0>         0.2897
     14 O3         -4.6707   -0.2245    0.0718 O.2       1 <0>        -0.3077
     15 N2         -3.8634   -2.2909    0.0627 N.am      1 <0>        -0.2644
     16 C11        -5.1389   -2.8346    0.0747 C.2       1 <0>        -0.0857
     17 C12        -5.5062   -4.1751    0.0717 C.2       1 <0>        -0.2761
     18 C13        -6.9210   -4.4606    0.0903 C.2       1 <0>        -0.1285
     19 C14        -7.7597   -3.4090    0.0988 C.2       1 <0>        -0.3797
     20 S1         -6.6604   -2.0081    0.0893 S.3       1 <0>         0.5131
     21 C15        -4.5055   -5.2466    0.0542 C.2       1 <0>         0.3855
     22 O4         -3.3198   -4.9719    0.0418 O.2       1 <0>        -0.4176
     23 N3         -4.8985   -6.5358    0.0518 N.am      1 <0>        -0.4222
     24 H1         -0.1046    7.7830   -0.1951 H         1 <0>         0.0772
     25 H2         -0.9425    7.7164   -1.7642 H         1 <0>         0.1156
     26 H3         -1.8828    7.8340   -0.2574 H         1 <0>         0.1145
     27 H4          0.6265    5.7353    0.5008 H         1 <0>         0.2337
     28 H5          2.0852    3.7059   -0.0028 H         1 <0>         0.1302
     29 H6          2.1038    1.2461   -0.0026 H         1 <0>         0.1325
     30 H7         -0.0150   -0.0043    0.0269 H         1 <0>         0.1300
     31 H8         -2.1898    3.6736    0.0594 H         1 <0>         0.1829
     32 H9         -1.7878   -0.6918   -0.8464 H         1 <0>         0.1028
     33 H10        -1.7706   -0.6929    0.9335 H         1 <0>         0.1005
     34 H11        -3.0879   -2.8736    0.0548 H         1 <0>         0.2748
     35 H12        -7.2905   -5.4755    0.0929 H         1 <0>         0.1372
     36 H13        -8.8397   -3.4133    0.1088 H         1 <0>         0.1880
     37 H14        -5.8434   -6.7547    0.0616 H         1 <0>         0.2185
     38 H15        -4.2365   -7.2446    0.0402 H         1 <0>         0.2291
@<TRIPOS>BOND
     1    1    2 1
     2    1   24 1
     3    1   25 1
     4    1   26 1
     5    2    3 2
     6    2    4 am
     7    4    5 1
     8    4   27 1
     9    5   10 ar
    10    5    6 ar
    11    6    7 ar
    12    6   28 1
    13    7    8 ar
    14    7   29 1
    15    8    9 ar
    16    8   30 1
    17    9   10 ar
    18    9   11 1
    19   10   31 1
    20   11   12 1
    21   12   13 1
    22   12   32 1
    23   12   33 1
    24   13   14 2
    25   13   15 am
    26   15   16 1
    27   15   34 1
    28   16   20 1
    29   16   17 2
    30   17   18 1
    31   17   21 1
    32   18   19 2
    33   18   35 1
    34   19   20 1
    35   19   36 1
    36   21   22 2
    37   21   23 am
    38   23   37 1
    39   23   38 1
@<TRIPOS>MOLECULE
ZINC03380464
   40    41     0     0     0
SMALL
USER_CHARGES

@<TRIPOS>ATOM
      1 C1          6.3040    2.4723    2.7038 C.3       1 <0>        -0.1828
      2 C2          6.9454    2.8688    1.3990 C.ar      1 <0>        -0.0538
      3 C3          8.0168    3.7426    1.3928 C.ar      1 <0>        -0.1279
      4 C4          8.6054    4.1058    0.1962 C.ar      1 <0>        -0.1167
      5 C5          8.1227    3.5954   -0.9946 C.ar      1 <0>        -0.1337
      6 C6          7.0550    2.7178   -0.9880 C.ar      1 <0>        -0.1053
      7 C7          6.4629    2.3585    0.2086 C.ar      1 <0>        -0.0698
      8 C8          5.2953    1.4058    0.2155 C.3       1 <0>        -0.2262
      9 S1          3.7481    2.3444    0.0892 S.3       1 <0>         0.1167
     10 C9          2.4582    1.0692    0.1104 C.3       1 <0>        -0.3033
     11 C10         1.1040    1.7228    0.0102 C.2       1 <0>         0.3187
     12 O1          1.0176    2.9300   -0.0678 O.2       1 <0>        -0.3240
     13 N1         -0.0111    0.9658    0.0074 N.am      1 <0>        -0.3267
     14 C11        -1.2662    1.5733    0.0051 C.ar      1 <0>         0.0838
     15 C12        -1.4585    2.7665   -0.6843 C.ar      1 <0>        -0.1378
     16 C13        -2.6976    3.3664   -0.6926 C.ar      1 <0>        -0.0875
     17 C14        -3.7603    2.7809    0.0009 C.ar      1 <0>        -0.1478
     18 C15        -3.5623    1.5852    0.6966 C.ar      1 <0>        -0.0484
     19 C16        -2.3219    0.9880    0.6969 C.ar      1 <0>        -0.1742
     20 C17        -5.0889    3.4237   -0.0020 C.2       1 <0>         0.3517
     21 O2         -6.0127    2.9129    0.6015 O.2       1 <0>        -0.3727
     22 N2         -5.2782    4.5768   -0.6735 N.am      1 <0>        -0.4283
     23 H1          6.7975    1.5831    3.0959 H         1 <0>         0.0827
     24 H2          6.4027    3.2882    3.4199 H         1 <0>         0.0867
     25 H3          5.2477    2.2591    2.5394 H         1 <0>         0.0934
     26 H4          8.3941    4.1410    2.3231 H         1 <0>         0.1326
     27 H5          9.4426    4.7881    0.1914 H         1 <0>         0.1302
     28 H6          8.5829    3.8789   -1.9296 H         1 <0>         0.1311
     29 H7          6.6807    2.3156   -1.9178 H         1 <0>         0.1330
     30 H8          5.2985    0.8337    1.1433 H         1 <0>         0.1029
     31 H9          5.3772    0.7247   -0.6316 H         1 <0>         0.0995
     32 H10         2.5210    0.5043    1.0405 H         1 <0>         0.1150
     33 H11         2.5997    0.3952   -0.7344 H         1 <0>         0.1135
     34 H12         0.0595   -0.0016    0.0028 H         1 <0>         0.2341
     35 H13        -0.6359    3.2204   -1.2169 H         1 <0>         0.1699
     36 H14        -2.8474    4.2902   -1.2316 H         1 <0>         0.1296
     37 H15        -4.3816    1.1300    1.2333 H         1 <0>         0.1596
     38 H16        -2.1682    0.0640    1.2344 H         1 <0>         0.1348
     39 H17        -4.5413    4.9843   -1.1549 H         1 <0>         0.2165
     40 H18        -6.1514    4.9993   -0.6753 H         1 <0>         0.2310
@<TRIPOS>BOND
     1    1    2 1
     2    1   23 1
     3    1   24 1
     4    1   25 1
     5    2    7 ar
     6    2    3 ar
     7    3    4 ar
     8    3   26 1
     9    4    5 ar
    10    4   27 1
    11    5    6 ar
    12    5   28 1
    13    6    7 ar
    14    6   29 1
    15    7    8 1
    16    8    9 1
    17    8   30 1
    18    8   31 1
    19    9   10 1
    20   10   11 1
    21   10   32 1
    22   10   33 1
    23   11   12 2
    24   11   13 am
    25   13   14 1
    26   13   34 1
    27   14   19 ar
    28   14   15 ar
    29   15   16 ar
    30   15   35 1
    31   16   17 ar
    32   16   36 1
    33   17   18 ar
    34   17   20 1
    35   18   19 ar
    36   18   37 1
    37   19   38 1
    38   20   21 2
    39   20   22 am
    40   22   39 1
    41   22   40 1
@<TRIPOS>MOLECULE
ZINC03384831
   36    37     0     0     0
SMALL
USER_CHARGES

@<TRIPOS>ATOM
      1 C1          1.4758    3.4858    1.2046 C.3       1 <0>        -0.1355
      2 C2          1.2402    2.0151    0.9752 C.2       1 <0>        -0.2699
      3 C3          0.0562    1.3591    0.8503 C.2       1 <0>        -0.2114
      4 C4          0.0603    0.0028    0.6435 C.2       1 <0>        -0.0785
      5 C5          1.2969   -0.6217    0.5741 C.2       1 <0>        -0.3477
      6 S1          2.4136    0.7501    0.8068 S.3       1 <0>         0.4696
      7 C6          1.6054   -2.0373    0.3642 C.2       1 <0>         0.3983
      8 O1          0.7041   -2.8416    0.2222 O.2       1 <0>        -0.3581
      9 O2          2.8893   -2.4498    0.3283 O.3       1 <0>        -0.2327
     10 C7          3.1205   -3.8675    0.1164 C.3       1 <0>        -0.0231
     11 C8          4.6029   -4.1387    0.1063 C.2       1 <0>         0.2967
     12 O3          5.3872   -3.2269    0.2623 O.2       1 <0>        -0.3185
     13 N1          5.0570   -5.3944   -0.0761 N.am      1 <0>        -0.3281
     14 C9          6.4261   -5.6303   -0.1956 C.ar      1 <0>         0.0885
     15 C10         7.2420   -4.6860   -0.8107 C.ar      1 <0>        -0.1390
     16 C11         8.5949   -4.9135   -0.9259 C.ar      1 <0>        -0.0856
     17 C12         9.1468   -6.0993   -0.4338 C.ar      1 <0>        -0.1481
     18 C13         8.3236   -7.0480    0.1788 C.ar      1 <0>        -0.0462
     19 C14         6.9723   -6.8119    0.2955 C.ar      1 <0>        -0.1738
     20 C15        10.5960   -6.3489   -0.5602 C.2       1 <0>         0.3518
     21 O4         11.0748   -7.3809   -0.1312 O.2       1 <0>        -0.3717
     22 N2         11.3885   -5.4329   -1.1512 N.am      1 <0>        -0.4284
     23 H1          1.5112    3.6854    2.2755 H         1 <0>         0.0973
     24 H2          2.4220    3.7776    0.7490 H         1 <0>         0.0914
     25 H3          0.6644    4.0582    0.7550 H         1 <0>         0.0958
     26 H4         -0.8767    1.9000    0.9088 H         1 <0>         0.1488
     27 H5         -0.8591   -0.5543    0.5395 H         1 <0>         0.1624
     28 H6          2.6526   -4.4360    0.9201 H         1 <0>         0.1114
     29 H7          2.6898   -4.1671   -0.8390 H         1 <0>         0.1120
     30 H8          4.4314   -6.1342   -0.1243 H         1 <0>         0.2357
     31 H9          6.8142   -3.7716   -1.1945 H         1 <0>         0.1629
     32 H10         9.2283   -4.1783   -1.3999 H         1 <0>         0.1296
     33 H11         8.7470   -7.9653    0.5605 H         1 <0>         0.1605
     34 H12         6.3357   -7.5445    0.7691 H         1 <0>         0.1363
     35 H13        11.0065   -4.6096   -1.4935 H         1 <0>         0.2162
     36 H14        12.3409   -5.5970   -1.2343 H         1 <0>         0.2313
@<TRIPOS>BOND
     1    1    2 1
     2    1   23 1
     3    1   24 1
     4    1   25 1
     5    2    6 1
     6    2    3 2
     7    3    4 1
     8    3   26 1
     9    4    5 2
    10    4   27 1
    11    5    6 1
    12    5    7 1
    13    7    8 2
    14    7    9 1
    15    9   10 1
    16   10   11 1
    17   10   28 1
    18   10   29 1
    19   11   12 2
    20   11   13 am
    21   13   14 1
    22   13   30 1
    23   14   19 ar
    24   14   15 ar
    25   15   16 ar
    26   15   31 1
    27   16   17 ar
    28   16   32 1
    29   17   18 ar
    30   17   20 1
    31   18   19 ar
    32   18   33 1
    33   19   34 1
    34   20   21 2
    35   20   22 am
    36   22   35 1
    37   22   36 1
@<TRIPOS>MOLECULE
ZINC03385737
   43    45     0     0     0
SMALL
USER_CHARGES

@<TRIPOS>ATOM
      1 C1         -0.5388   -2.9921   -1.4607 C.3       1 <0>        -0.2346
      2 C2         -0.0259   -2.8365   -0.0276 C.3       1 <0>         0.0257
      3 H1         -0.7639   -2.2968    0.5658 H         1 <0>         0.1181
      4 C3          0.2038   -4.1988    0.5744 C.2       1 <0>         0.2957
      5 O1          1.3109   -4.5139    0.9569 O.2       1 <0>        -0.3455
      6 N1         -0.8208   -5.0670    0.6877 N.am      1 <0>        -0.3106
      7 C4         -0.5861   -6.3727    1.1390 C.ar      1 <0>         0.0341
      8 C5          0.6672   -6.9470    0.9851 C.ar      1 <0>        -0.0528
      9 C6          0.8975   -8.2333    1.4348 C.ar      1 <0>        -0.1300
     10 C7         -0.1215   -8.9541    2.0299 C.ar      1 <0>        -0.0495
     11 C8         -1.3746   -8.3903    2.1820 C.ar      1 <0>        -0.2115
     12 C9         -1.6123   -7.0995    1.7381 C.ar      1 <0>         0.0993
     13 O2         -2.8444   -6.5438    1.8866 O.3       1 <0>        -0.2149
     14 C10        -3.8479   -7.3478    2.5098 C.3       1 <0>        -0.0641
     15 N2          2.2367   -8.8430    1.2740 N.pl3     1 <0>         0.5542
     16 O3          2.4400   -9.9782    1.6657 O.2       1 <0>        -0.3625
     17 O4          3.1353   -8.2094    0.7501 O.3       1 <0>        -0.3481
     18 N3          1.2337   -2.0885   -0.0383 N.pl3     1 <0>        -0.3606
     19 C11         1.2166   -0.6894   -0.0414 C.ar      1 <0>         0.1299
     20 C12         0.0057   -0.0097   -0.0344 C.ar      1 <0>        -0.2185
     21 C13        -0.0126    1.3721   -0.0375 C.ar      1 <0>        -0.0651
     22 C14         1.1763    2.0831   -0.0470 C.ar      1 <0>        -0.0530
     23 C15         2.3924    1.4044   -0.0536 C.ar      1 <0>         0.0543
     24 C16         2.4101    0.0194   -0.0510 C.ar      1 <0>        -0.1864
     25 O5          3.4038    2.3211   -0.0624 O.3       1 <0>        -0.2070
     26 C17         2.7967    3.5602   -0.4738 C.3       1 <0>         0.1080
     27 O6          1.4266    3.4263   -0.0517 O.3       1 <0>        -0.2098
     28 H2          0.1992   -3.5318   -2.0541 H         1 <0>         0.0954
     29 H3         -1.4760   -3.5486   -1.4528 H         1 <0>         0.0747
     30 H4         -0.7050   -2.0068   -1.8961 H         1 <0>         0.1007
     31 H5         -1.7207   -4.7880    0.4569 H         1 <0>         0.2477
     32 H6          1.4638   -6.3878    0.5169 H         1 <0>         0.2073
     33 H7          0.0619   -9.9604    2.3765 H         1 <0>         0.1668
     34 H8         -2.1685   -8.9562    2.6465 H         1 <0>         0.1534
     35 H9         -4.7804   -6.7863    2.5658 H         1 <0>         0.1165
     36 H10        -4.0038   -8.2534    1.9235 H         1 <0>         0.0741
     37 H11        -3.5250   -7.6172    3.5154 H         1 <0>         0.0772
     38 H12         2.0796   -2.5632   -0.0432 H         1 <0>         0.2530
     39 H13        -0.9227   -0.5615   -0.0269 H         1 <0>         0.1341
     40 H14        -0.9556    1.8986   -0.0369 H         1 <0>         0.1411
     41 H15         3.3521   -0.5088   -0.0569 H         1 <0>         0.1484
     42 H16         2.8546    3.6743   -1.5562 H         1 <0>         0.0859
     43 H17         3.2703    4.4056    0.0252 H         1 <0>         0.1288
@<TRIPOS>BOND
     1    1    2 1
     2    1   28 1
     3    1   29 1
     4    1   30 1
     5    2    3 1
     6    2    4 1
     7    2   18 1
     8    4    5 2
     9    4    6 am
    10    6    7 1
    11    6   31 1
    12    7   12 ar
    13    7    8 ar
    14    8    9 ar
    15    8   32 1
    16    9   10 ar
    17    9   15 1
    18   10   11 ar
    19   10   33 1
    20   11   12 ar
    21   11   34 1
    22   12   13 1
    23   13   14 1
    24   14   35 1
    25   14   36 1
    26   14   37 1
    27   15   16 2
    28   15   17 1
    29   18   19 1
    30   18   38 1
    31   19   24 ar
    32   19   20 ar
    33   20   21 ar
    34   20   39 1
    35   21   22 ar
    36   21   40 1
    37   22   27 1
    38   22   23 ar
    39   23   24 ar
    40   23   25 1
    41   24   41 1
    42   25   26 1
    43   26   27 1
    44   26   42 1
    45   26   43 1
@<TRIPOS>MOLECULE
ZINC03388109
   36    37     0     0     0
SMALL
USER_CHARGES

@<TRIPOS>ATOM
      1 C1         -5.0357    4.0193    0.0471 C.3       1 <0>        -0.1810
      2 C2         -3.7205    3.2836    0.0374 C.ar      1 <0>        -0.0398
      3 C3         -3.7054    1.9000    0.0299 C.ar      1 <0>        -0.1475
      4 C4         -2.5051    1.2203    0.0206 C.ar      1 <0>        -0.0592
      5 C5         -1.3036    1.9317    0.0187 C.ar      1 <0>        -0.1228
      6 C6         -1.3262    3.3277    0.0322 C.ar      1 <0>        -0.0692
      7 C7         -2.5336    3.9948    0.0357 C.ar      1 <0>        -0.1472
      8 C8         -0.0144    1.2105    0.0087 C.2       1 <0>         0.3541
      9 O1          0.0021   -0.0041    0.0020 O.2       1 <0>        -0.3640
     10 O2          1.1429    1.8999    0.0013 O.3       1 <0>        -0.2377
     11 C9          2.3712    1.1257   -0.0145 C.3       1 <0>        -0.0180
     12 C10         3.5538    2.0599   -0.0208 C.2       1 <0>         0.2888
     13 O3          3.3786    3.2599   -0.0127 O.2       1 <0>        -0.3190
     14 N1          4.8060    1.5618   -0.0354 N.am      1 <0>        -0.2624
     15 C11         5.8940    2.4213   -0.0412 C.2       1 <0>        -0.0863
     16 C12         7.2467    2.1018   -0.0502 C.2       1 <0>        -0.2734
     17 C13         8.1748    3.2074   -0.0582 C.2       1 <0>        -0.1280
     18 C14         7.6532    4.4473   -0.0463 C.2       1 <0>        -0.3783
     19 S1          5.8970    4.1528   -0.0314 S.3       1 <0>         0.5068
     20 C15         7.7082    0.7101   -0.0549 C.2       1 <0>         0.3845
     21 O4          6.8993   -0.1993   -0.0510 O.2       1 <0>        -0.4146
     22 N2          9.0281    0.4379   -0.0636 N.am      1 <0>        -0.4219
     23 H1         -5.3483    4.1911    1.0771 H         1 <0>         0.0918
     24 H2         -4.9205    4.9762   -0.4620 H         1 <0>         0.0859
     25 H3         -5.7895    3.4227   -0.4667 H         1 <0>         0.0855
     26 H4         -4.6355    1.3511    0.0317 H         1 <0>         0.1381
     27 H5         -2.4947    0.1404    0.0143 H         1 <0>         0.1542
     28 H6         -0.4005    3.8840    0.0353 H         1 <0>         0.1557
     29 H7         -2.5525    5.0746    0.0412 H         1 <0>         0.1378
     30 H8          2.4131    0.4925    0.8717 H         1 <0>         0.1175
     31 H9          2.3961    0.5021   -0.9082 H         1 <0>         0.1174
     32 H10         4.9461    0.6020   -0.0419 H         1 <0>         0.2774
     33 H11         9.2426    3.0459   -0.0689 H         1 <0>         0.1380
     34 H12         8.1741    5.3933   -0.0458 H         1 <0>         0.1881
     35 H13         9.6728    1.1627   -0.0667 H         1 <0>         0.2183
     36 H14         9.3334   -0.4828   -0.0667 H         1 <0>         0.2299
@<TRIPOS>BOND
     1    1    2 1
     2    1   23 1
     3    1   24 1
     4    1   25 1
     5    2    7 ar
     6    2    3 ar
     7    3    4 ar
     8    3   26 1
     9    4    5 ar
    10    4   27 1
    11    5    6 ar
    12    5    8 1
    13    6    7 ar
    14    6   28 1
    15    7   29 1
    16    8    9 2
    17    8   10 1
    18   10   11 1
    19   11   12 1
    20   11   30 1
    21   11   31 1
    22   12   13 2
    23   12   14 am
    24   14   15 1
    25   14   32 1
    26   15   19 1
    27   15   16 2
    28   16   17 1
    29   16   20 1
    30   17   18 2
    31   17   33 1
    32   18   19 1
    33   18   34 1
    34   20   21 2
    35   20   22 am
    36   22   35 1
    37   22   36 1
@<TRIPOS>MOLECULE
ZINC03394618
   39    40     0     0     0
SMALL
USER_CHARGES

@<TRIPOS>ATOM
      1 C1          0.0101   -0.0044    0.0434 C.3       1 <0>        -0.2416
      2 C2         -0.0130    1.5024    0.0290 C.2       1 <0>         0.2993
      3 O1          1.0277    2.1245   -0.0048 O.2       1 <0>        -0.3493
      4 N1         -1.1901    2.1585    0.0480 N.am      1 <0>        -0.3265
      5 C3         -1.2118    3.5551    0.1543 C.ar      1 <0>         0.0517
      6 C4         -0.1579    4.2214    0.7657 C.ar      1 <0>        -0.1196
      7 C5         -0.1774    5.5979    0.8670 C.ar      1 <0>        -0.1056
      8 C6         -1.2553    6.3158    0.3657 C.ar      1 <0>         0.0384
      9 C7         -2.3115    5.6491   -0.2415 C.ar      1 <0>        -0.1394
     10 C8         -2.2899    4.2729   -0.3467 C.ar      1 <0>        -0.1525
     11 N2         -1.2771    7.7123    0.4720 N.am      1 <0>        -0.3265
     12 C9         -0.1307    8.4138    0.3703 C.2       1 <0>         0.2966
     13 O2          0.9292    7.8325    0.2715 O.2       1 <0>        -0.3250
     14 C10        -0.1659    9.9204    0.3793 C.3       1 <0>        -0.0242
     15 O3          1.1857   10.4368    0.2582 O.3       1 <0>        -0.2349
     16 C11         1.3302   11.7763    0.2502 C.2       1 <0>         0.3510
     17 O4          0.3537   12.4932    0.3419 O.2       1 <0>        -0.3495
     18 C12         2.6747   12.3727    0.1301 C.ar      1 <0>        -0.1566
     19 C13         3.8007   11.5516    0.0302 C.ar      1 <0>        -0.0477
     20 C14         5.0531   12.1152   -0.0871 C.ar      1 <0>        -0.1625
     21 C15         5.1999   13.4921   -0.0951 C.ar      1 <0>        -0.0697
     22 C16         4.0929   14.3130    0.0084 C.ar      1 <0>        -0.1879
     23 C17         2.8289   13.7629    0.1214 C.ar      1 <0>         0.1635
     24 F1          1.7470   14.5655    0.2235 F         1 <0>        -0.0767
     25 H1          1.0428   -0.3522    0.0196 H         1 <0>         0.1197
     26 H2         -0.4744   -0.3665    0.9502 H         1 <0>         0.0959
     27 H3         -0.5215   -0.3843   -0.8290 H         1 <0>         0.0950
     28 H4         -2.0222    1.6637   -0.0120 H         1 <0>         0.2305
     29 H5          0.6787    3.6628    1.1589 H         1 <0>         0.1741
     30 H6          0.6441    6.1164    1.3389 H         1 <0>         0.1696
     31 H7         -3.1496    6.2074   -0.6317 H         1 <0>         0.1303
     32 H8         -3.1112    3.7544   -0.8189 H         1 <0>         0.1299
     33 H9         -2.1171    8.1745    0.6188 H         1 <0>         0.2310
     34 H10        -0.7667   10.2748   -0.4583 H         1 <0>         0.1117
     35 H11        -0.6053   10.2679    1.3143 H         1 <0>         0.1092
     36 H12         3.6896   10.4773    0.0408 H         1 <0>         0.1646
     37 H13         5.9233   11.4807   -0.1681 H         1 <0>         0.1424
     38 H14         6.1847   13.9268   -0.1824 H         1 <0>         0.1395
     39 H15         4.2151   15.3860    0.0014 H         1 <0>         0.1517
@<TRIPOS>BOND
     1    1    2 1
     2    1   25 1
     3    1   26 1
     4    1   27 1
     5    2    3 2
     6    2    4 am
     7    4    5 1
     8    4   28 1
     9    5   10 ar
    10    5    6 ar
    11    6    7 ar
    12    6   29 1
    13    7    8 ar
    14    7   30 1
    15    8    9 ar
    16    8   11 1
    17    9   10 ar
    18    9   31 1
    19   10   32 1
    20   11   12 am
    21   11   33 1
    22   12   13 2
    23   12   14 1
    24   14   15 1
    25   14   34 1
    26   14   35 1
    27   15   16 1
    28   16   17 2
    29   16   18 1
    30   18   23 ar
    31   18   19 ar
    32   19   20 ar
    33   19   36 1
    34   20   21 ar
    35   20   37 1
    36   21   22 ar
    37   21   38 1
    38   22   23 ar
    39   22   39 1
    40   23   24 1
@<TRIPOS>MOLECULE
ZINC03398403
   40    42     0     0     0
SMALL
USER_CHARGES

@<TRIPOS>ATOM
      1 C1         -0.0555    4.2421    0.0259 C.ar      1 <0>        -0.0936
      2 C2          1.1538    3.5699    0.0103 C.ar      1 <0>        -0.1457
      3 C3          1.1798    2.1907    0.0026 C.ar      1 <0>        -0.0632
      4 C4         -0.0180    1.4730    0.0101 C.ar      1 <0>        -0.1166
      5 C5         -1.2347    2.1578    0.0196 C.ar      1 <0>        -0.0730
      6 C6         -1.2461    3.5372    0.0335 C.ar      1 <0>        -0.1452
      7 C7          0.0021   -0.0041    0.0020 C.2       1 <0>         0.3540
      8 O1          1.0621   -0.5970   -0.0113 O.2       1 <0>        -0.3639
      9 O2         -1.1553   -0.6934    0.0094 O.3       1 <0>        -0.2353
     10 C8         -1.0596   -2.1423    0.0007 C.3       1 <0>        -0.0189
     11 C9         -2.4442   -2.7372    0.0107 C.2       1 <0>         0.2922
     12 O3         -3.4159   -2.0115    0.0239 O.2       1 <0>        -0.3132
     13 N1         -2.6026   -4.0756    0.0050 N.am      1 <0>        -0.2702
     14 C10        -3.8766   -4.6229    0.0142 C.2       1 <0>        -0.1469
     15 C11        -4.2390   -5.9589    0.0049 C.2       1 <0>        -0.2219
     16 C12        -5.6672   -6.2734    0.0223 C.2       1 <0>        -0.0889
     17 C13        -6.4867   -5.2067    0.0362 C.2       1 <0>        -0.3468
     18 S1         -5.4000   -3.8018    0.0326 S.3       1 <0>         0.5461
     19 C14        -7.9364   -5.6093    0.0507 C.3       1 <0>        -0.0700
     20 C15        -7.9240   -7.0928    0.4810 C.3       1 <0>        -0.1588
     21 C16        -6.5222   -7.5413    0.0220 C.3       1 <0>        -0.0998
     22 C17        -3.2277   -7.0203   -0.0175 C.2       1 <0>         0.3596
     23 O4         -2.7960   -7.4718    1.0271 O.2       1 <0>        -0.3602
     24 N2         -2.7760   -7.4959   -1.1949 N.am      1 <0>        -0.4294
     25 H1         -0.0702    5.3220    0.0319 H         1 <0>         0.1336
     26 H2          2.0794    4.1262    0.0044 H         1 <0>         0.1381
     27 H3          2.1243    1.6672   -0.0097 H         1 <0>         0.1543
     28 H4         -2.1648    1.6088    0.0206 H         1 <0>         0.1562
     29 H5         -2.1865    4.0681    0.0457 H         1 <0>         0.1380
     30 H6         -0.5315   -2.4661   -0.8961 H         1 <0>         0.1124
     31 H7         -0.5145   -2.4757    0.8837 H         1 <0>         0.1173
     32 H8         -1.8255   -4.6559   -0.0055 H         1 <0>         0.2487
     33 H9         -8.4905   -5.0089    0.7722 H         1 <0>         0.0926
     34 H10        -8.3698   -5.5057   -0.9440 H         1 <0>         0.0948
     35 H11        -8.0290   -7.1864    1.5619 H         1 <0>         0.0970
     36 H12        -8.7020   -7.6553   -0.0352 H         1 <0>         0.0908
     37 H13        -6.1130   -8.2723    0.7193 H         1 <0>         0.0991
     38 H14        -6.5713   -7.9643   -0.9814 H         1 <0>         0.0908
     39 H15        -3.1200   -7.1361   -2.0274 H         1 <0>         0.2191
     40 H16        -2.1069   -8.1981   -1.2098 H         1 <0>         0.2267
@<TRIPOS>BOND
     1    1    6 ar
     2    1    2 ar
     3    1   25 1
     4    2    3 ar
     5    2   26 1
     6    3    4 ar
     7    3   27 1
     8    4    5 ar
     9    4    7 1
    10    5    6 ar
    11    5   28 1
    12    6   29 1
    13    7    8 2
    14    7    9 1
    15    9   10 1
    16   10   11 1
    17   10   30 1
    18   10   31 1
    19   11   12 2
    20   11   13 am
    21   13   14 1
    22   13   32 1
    23   14   18 1
    24   14   15 2
    25   15   16 1
    26   15   22 1
    27   16   21 1
    28   16   17 2
    29   17   18 1
    30   17   19 1
    31   19   20 1
    32   19   33 1
    33   19   34 1
    34   20   21 1
    35   20   35 1
    36   20   36 1
    37   21   37 1
    38   21   38 1
    39   22   23 2
    40   22   24 am
    41   24   39 1
    42   24   40 1
@<TRIPOS>MOLECULE
ZINC03398506
   41    42     0     0     0
SMALL
USER_CHARGES

@<TRIPOS>ATOM
      1 C1         -7.7636   -3.3996    0.0234 C.3       1 <0>        -0.0647
      2 O1         -8.0551   -2.0006    0.0315 O.3       1 <0>        -0.2068
      3 C2         -6.9970   -1.1509    0.0298 C.ar      1 <0>         0.1670
      4 C3         -5.7009   -1.6581    0.0205 C.ar      1 <0>        -0.2771
      5 C4         -4.6287   -0.8130    0.0196 C.ar      1 <0>         0.0000
      6 C5         -4.8273    0.5719    0.0281 C.ar      1 <0>        -0.1902
      7 C6         -6.1330    1.0875    0.0428 C.ar      1 <0>         0.1920
      8 C7         -7.2118    0.2195    0.0378 C.ar      1 <0>        -0.2785
      9 O2         -6.3365    2.4285    0.0568 O.3       1 <0>        -0.1673
     10 C8         -7.6927    2.8787    0.0714 C.3       1 <0>        -0.0709
     11 C9         -3.6727    1.4840    0.0275 C.2       1 <0>         0.3570
     12 O3         -3.8482    2.6867    0.0349 O.2       1 <0>        -0.3472
     13 O4         -2.4203    0.9858    0.0189 O.3       1 <0>        -0.2457
     14 C10        -1.3296    1.9443    0.0189 C.3       1 <0>        -0.0160
     15 C11        -0.0144    1.2086    0.0087 C.2       1 <0>         0.2889
     16 O5          0.0021   -0.0041    0.0020 O.2       1 <0>        -0.3210
     17 N1          1.1435    1.8983    0.0013 N.am      1 <0>        -0.2629
     18 C12         2.3536    1.2214   -0.0139 C.2       1 <0>        -0.0845
     19 C13         3.6387    1.7505   -0.0289 C.2       1 <0>        -0.2747
     20 C14         4.7298    0.8055   -0.0384 C.2       1 <0>        -0.1276
     21 C15         4.4105   -0.5012   -0.0429 C.2       1 <0>        -0.3796
     22 S1          2.6299   -0.4879   -0.0263 S.3       1 <0>         0.5055
     23 C16         3.8746    3.1977   -0.0310 C.2       1 <0>         0.3844
     24 O6          2.9323    3.9679   -0.0194 O.2       1 <0>        -0.4140
     25 N2          5.1349    3.6750   -0.0458 N.am      1 <0>        -0.4224
     26 H1         -7.1817   -3.6546    0.9091 H         1 <0>         0.0731
     27 H2         -8.6956   -3.9649    0.0258 H         1 <0>         0.1113
     28 H3         -7.1913   -3.6463   -0.8708 H         1 <0>         0.0732
     29 H4         -5.5424   -2.7264    0.0143 H         1 <0>         0.1417
     30 H5         -3.6259   -1.2139    0.0127 H         1 <0>         0.1605
     31 H6         -8.2192    0.6088    0.0450 H         1 <0>         0.1554
     32 H7         -8.1926    2.4973    0.9617 H         1 <0>         0.0707
     33 H8         -7.7137    3.9684    0.0816 H         1 <0>         0.1160
     34 H9         -8.2063    2.5137   -0.8181 H         1 <0>         0.0707
     35 H10        -1.3916    2.5653    0.9126 H         1 <0>         0.1167
     36 H11        -1.4000    2.5749   -0.8673 H         1 <0>         0.1169
     37 H12         1.1304    2.8682    0.0067 H         1 <0>         0.2776
     38 H13         5.7587    1.1336   -0.0461 H         1 <0>         0.1375
     39 H14         5.0742   -1.3532   -0.0537 H         1 <0>         0.1876
     40 H15         5.8859    3.0612   -0.0551 H         1 <0>         0.2181
     41 H16         5.2910    4.6324   -0.0472 H         1 <0>         0.2296
@<TRIPOS>BOND
     1    1    2 1
     2    1   26 1
     3    1   27 1
     4    1   28 1
     5    2    3 1
     6    3    8 ar
     7    3    4 ar
     8    4    5 ar
     9    4   29 1
    10    5    6 ar
    11    5   30 1
    12    6    7 ar
    13    6   11 1
    14    7    8 ar
    15    7    9 1
    16    8   31 1
    17    9   10 1
    18   10   32 1
    19   10   33 1
    20   10   34 1
    21   11   12 2
    22   11   13 1
    23   13   14 1
    24   14   15 1
    25   14   35 1
    26   14   36 1
    27   15   16 2
    28   15   17 am
    29   17   18 1
    30   17   37 1
    31   18   22 1
    32   18   19 2
    33   19   20 1
    34   19   23 1
    35   20   21 2
    36   20   38 1
    37   21   22 1
    38   21   39 1
    39   23   24 2
    40   23   25 am
    41   25   40 1
    42   25   41 1
@<TRIPOS>MOLECULE
ZINC03399027
   43    45     0     0     0
SMALL
USER_CHARGES

@<TRIPOS>ATOM
      1 C1         -1.5021    8.4025   -2.1412 C.3       1 <0>        -0.2069
      2 C2         -0.7687    7.7384   -0.9742 C.3       1 <0>        -0.1149
      3 C3         -1.4087    8.1752    0.3451 C.3       1 <0>        -0.2068
      4 C4         -0.8666    6.2175   -1.1095 C.3       1 <0>        -0.0118
      5 O1         -0.0852    5.5970   -0.0866 O.3       1 <0>        -0.2101
      6 C5         -0.0642    4.2403   -0.0651 C.ar      1 <0>         0.1275
      7 C6          0.6766    3.5739    0.9043 C.ar      1 <0>        -0.1755
      8 C7          0.7007    2.1976    0.9298 C.ar      1 <0>        -0.0364
      9 C8         -0.0208    1.4702   -0.0214 C.ar      1 <0>        -0.1806
     10 C9         -0.7594    2.1444   -0.9984 C.ar      1 <0>        -0.0097
     11 C10        -0.7831    3.5208   -1.0128 C.ar      1 <0>        -0.2318
     12 C11         0.0021   -0.0041    0.0020 C.2       1 <0>         0.3621
     13 O2          1.0601   -0.5967   -0.0770 O.2       1 <0>        -0.2690
     14 N1         -1.1504   -0.6943    0.1110 N.am      1 <0>        -0.3092
     15 C12        -1.2287   -2.0333    0.2102 C.2       1 <0>         0.3569
     16 O3         -0.2861   -2.7994    0.2149 O.2       1 <0>        -0.2519
     17 C13        -2.6484   -2.4169    0.3114 C.ar      1 <0>        -0.1981
     18 C14        -3.3179   -3.6275    0.4326 C.ar      1 <0>        -0.0053
     19 C15        -4.6977   -3.6458    0.5053 C.ar      1 <0>        -0.2042
     20 C16        -5.4209   -2.4588    0.4587 C.ar      1 <0>         0.1387
     21 C17        -4.7598   -1.2361    0.3375 C.ar      1 <0>        -0.1399
     22 C18        -3.3791   -1.2095    0.2637 C.ar      1 <0>        -0.0892
     23 C19        -2.3730   -0.1338    0.1408 C.2       1 <0>         0.3585
     24 O4         -2.6102    1.0552    0.0754 O.2       1 <0>        -0.2812
     25 N2         -6.8089   -2.4907    0.5337 N.pl3     1 <0>        -0.4041
     26 H1         -2.5501    8.1034   -2.1292 H         1 <0>         0.0753
     27 H2         -1.4323    9.4860   -2.0448 H         1 <0>         0.0833
     28 H3         -1.0461    8.0913   -3.0811 H         1 <0>         0.0743
     29 H4          0.2793    8.0375   -0.9862 H         1 <0>         0.1039
     30 H5         -0.8863    7.7021    1.1766 H         1 <0>         0.0897
     31 H6         -1.3390    9.2587    0.4416 H         1 <0>         0.0738
     32 H7         -2.4568    7.8761    0.3571 H         1 <0>         0.0728
     33 H8         -0.4916    5.9149   -2.0872 H         1 <0>         0.0765
     34 H9         -1.9075    5.9100   -1.0086 H         1 <0>         0.0797
     35 H10         1.2337    4.1367    1.6387 H         1 <0>         0.1475
     36 H11         1.2759    1.6807    1.6837 H         1 <0>         0.1450
     37 H12        -1.3143    1.5862   -1.7379 H         1 <0>         0.1347
     38 H13        -1.3573    4.0424   -1.7642 H         1 <0>         0.1390
     39 H14        -2.7616   -4.5525    0.4689 H         1 <0>         0.1518
     40 H15        -5.2177   -4.5877    0.5993 H         1 <0>         0.1417
     41 H16        -5.3232   -0.3154    0.3011 H         1 <0>         0.1492
     42 H17        -7.3154   -1.6640    0.5018 H         1 <0>         0.2268
     43 H18        -7.2707   -3.3395    0.6181 H         1 <0>         0.2275
@<TRIPOS>BOND
     1    1    2 1
     2    1   26 1
     3    1   27 1
     4    1   28 1
     5    2    3 1
     6    2    4 1
     7    2   29 1
     8    3   30 1
     9    3   31 1
    10    3   32 1
    11    4    5 1
    12    4   33 1
    13    4   34 1
    14    5    6 1
    15    6   11 ar
    16    6    7 ar
    17    7    8 ar
    18    7   35 1
    19    8    9 ar
    20    8   36 1
    21    9   10 ar
    22    9   12 1
    23   10   11 ar
    24   10   37 1
    25   11   38 1
    26   12   13 2
    27   12   14 am
    28   14   23 am
    29   14   15 am
    30   15   16 2
    31   15   17 1
    32   17   22 ar
    33   17   18 ar
    34   18   19 ar
    35   18   39 1
    36   19   20 ar
    37   19   40 1
    38   20   21 ar
    39   20   25 1
    40   21   22 ar
    41   21   41 1
    42   22   23 1
    43   23   24 2
    44   25   42 1
    45   25   43 1
@<TRIPOS>MOLECULE
ZINC03399998
   41    42     0     0     0
SMALL
USER_CHARGES

@<TRIPOS>ATOM
      1 C1         -1.1676   -4.9771   -0.1232 C.3       1 <0>        -0.0540
      2 N1         -2.4358   -4.2547    0.0029 N.pl3     1 <0>        -0.3420
      3 C2         -3.6930   -4.9973    0.1227 C.3       1 <0>        -0.0470
      4 C3         -2.4464   -2.8576    0.0088 C.ar      1 <0>         0.1114
      5 C4         -3.6557   -2.1716    0.0088 C.ar      1 <0>        -0.1781
      6 C5         -3.6717   -0.7896    0.0156 C.ar      1 <0>        -0.0996
      7 C6         -2.4875   -0.0810    0.0273 C.ar      1 <0>        -0.1329
      8 C7         -1.2675   -0.7601    0.0216 C.ar      1 <0>        -0.0703
      9 C8         -1.2512   -2.1554    0.0152 C.ar      1 <0>        -0.1501
     10 C9          0.0018   -0.0040    0.0283 C.2       1 <0>         0.3544
     11 O1          1.0620   -0.5969    0.0283 O.2       1 <0>        -0.3659
     12 O2         -0.0166    1.3430    0.0345 O.3       1 <0>        -0.2348
     13 C10         1.2680    2.0197    0.0409 C.3       1 <0>        -0.0184
     14 C11         1.0502    3.5109    0.0472 C.2       1 <0>         0.2886
     15 O3         -0.0767    3.9591    0.0463 O.2       1 <0>        -0.3176
     16 N2          2.1078    4.3464    0.0537 N.am      1 <0>        -0.2629
     17 C12         1.9073    5.7184    0.0595 C.2       1 <0>        -0.0857
     18 C13         2.8602    6.7301    0.0723 C.2       1 <0>        -0.2742
     19 C14         2.3669    8.0867    0.0721 C.2       1 <0>        -0.1279
     20 C15         1.0323    8.2548    0.0698 C.2       1 <0>        -0.3788
     21 S1          0.4092    6.5866    0.0603 S.3       1 <0>         0.5076
     22 C16         4.2962    6.4340    0.0818 C.2       1 <0>         0.3846
     23 O4          4.6794    5.2788    0.0786 O.2       1 <0>        -0.4147
     24 N3          5.1919    7.4410    0.0942 N.am      1 <0>        -0.4222
     25 H1         -0.3416   -4.2660   -0.1101 H         1 <0>         0.0975
     26 H2         -1.0614   -5.6727    0.7093 H         1 <0>         0.0709
     27 H3         -1.1561   -5.5300   -1.0624 H         1 <0>         0.0695
     28 H4         -4.1044   -5.1779   -0.8704 H         1 <0>         0.0659
     29 H5         -3.5063   -5.9504    0.6174 H         1 <0>         0.0796
     30 H6         -4.4037   -4.4161    0.7102 H         1 <0>         0.0831
     31 H7         -4.5858   -2.7205    0.0039 H         1 <0>         0.1349
     32 H8         -4.6143   -0.2624    0.0159 H         1 <0>         0.1349
     33 H9         -2.5044    0.9988    0.0371 H         1 <0>         0.1532
     34 H10        -0.3108   -2.6864    0.0148 H         1 <0>         0.1567
     35 H11         1.8267    1.7304    0.9310 H         1 <0>         0.1169
     36 H12         1.8313    1.7386   -0.8490 H         1 <0>         0.1169
     37 H13         3.0091    3.9879    0.0544 H         1 <0>         0.2772
     38 H14         3.0406    8.9307    0.0782 H         1 <0>         0.1377
     39 H15         0.4733    9.1789    0.0730 H         1 <0>         0.1879
     40 H16         4.8865    8.3617    0.0968 H         1 <0>         0.2183
     41 H17         6.1419    7.2451    0.1004 H         1 <0>         0.2296
@<TRIPOS>BOND
     1    1    2 1
     2    1   25 1
     3    1   26 1
     4    1   27 1
     5    2    3 1
     6    2    4 1
     7    3   28 1
     8    3   29 1
     9    3   30 1
    10    4    9 ar
    11    4    5 ar
    12    5    6 ar
    13    5   31 1
    14    6    7 ar
    15    6   32 1
    16    7    8 ar
    17    7   33 1
    18    8    9 ar
    19    8   10 1
    20    9   34 1
    21   10   11 2
    22   10   12 1
    23   12   13 1
    24   13   14 1
    25   13   35 1
    26   13   36 1
    27   14   15 2
    28   14   16 am
    29   16   17 1
    30   16   37 1
    31   17   21 1
    32   17   18 2
    33   18   19 1
    34   18   22 1
    35   19   20 2
    36   19   38 1
    37   20   21 1
    38   20   39 1
    39   22   23 2
    40   22   24 am
    41   24   40 1
    42   24   41 1
@<TRIPOS>MOLECULE
ZINC03400580
   41    42     0     0     0
SMALL
USER_CHARGES

@<TRIPOS>ATOM
      1 C1         -6.1869    3.2100    0.0478 C.3       1 <0>        -0.0534
      2 N1         -4.9283    3.9596    0.0463 N.pl3     1 <0>        -0.3286
      3 C2         -4.9481    5.4245    0.0543 C.3       1 <0>        -0.0535
      4 C3         -3.7151    3.2810    0.0374 C.ar      1 <0>         0.1569
      5 C4         -3.6980    1.8888    0.0298 C.ar      1 <0>        -0.2329
      6 C5         -2.5031    1.2163    0.0205 C.ar      1 <0>        -0.0130
      7 C6         -1.3006    1.9304    0.0187 C.ar      1 <0>        -0.1842
      8 C7         -1.3214    3.3288    0.0322 C.ar      1 <0>        -0.0239
      9 C8         -2.5197    3.9951    0.0356 C.ar      1 <0>        -0.2322
     10 C9         -0.0144    1.2110    0.0087 C.2       1 <0>         0.3605
     11 O1          0.0021   -0.0041    0.0020 O.2       1 <0>        -0.3751
     12 O2          1.1434    1.9006    0.0013 O.3       1 <0>        -0.2407
     13 C10         2.3717    1.1264   -0.0145 C.3       1 <0>        -0.0175
     14 C11         3.5542    2.0606   -0.0208 C.2       1 <0>         0.2886
     15 O3          3.3790    3.2607   -0.0127 O.2       1 <0>        -0.3196
     16 N2          4.8064    1.5625   -0.0354 N.am      1 <0>        -0.2630
     17 C12         5.8945    2.4220   -0.0412 C.2       1 <0>        -0.0845
     18 C13         7.2471    2.1026   -0.0502 C.2       1 <0>        -0.2749
     19 C14         8.1752    3.2081   -0.0582 C.2       1 <0>        -0.1277
     20 C15         7.6537    4.4480   -0.0463 C.2       1 <0>        -0.3796
     21 S1          5.8974    4.1536   -0.0314 S.3       1 <0>         0.5061
     22 C16         7.7086    0.7109   -0.0549 C.2       1 <0>         0.3845
     23 O4          6.8997   -0.1985   -0.0510 O.2       1 <0>        -0.4142
     24 N3          9.0286    0.4386   -0.0636 N.am      1 <0>        -0.4224
     25 H1         -6.4946    3.0185    1.0757 H         1 <0>         0.0701
     26 H2         -6.9567    3.7915   -0.4596 H         1 <0>         0.0807
     27 H3         -6.0459    2.2622   -0.4718 H         1 <0>         0.0885
     28 H4         -4.9575    5.7933   -0.9713 H         1 <0>         0.0703
     29 H5         -5.8407    5.7729    0.5739 H         1 <0>         0.0806
     30 H6         -4.0610    5.7971    0.5664 H         1 <0>         0.0890
     31 H7         -4.6269    1.3379    0.0316 H         1 <0>         0.1384
     32 H8         -2.4906    0.1364    0.0143 H         1 <0>         0.1522
     33 H9         -0.3945    3.8832    0.0356 H         1 <0>         0.1534
     34 H10        -2.5365    5.0749    0.0415 H         1 <0>         0.1380
     35 H11         2.4136    0.4932    0.8717 H         1 <0>         0.1165
     36 H12         2.3966    0.5028   -0.9082 H         1 <0>         0.1164
     37 H13         4.9466    0.6027   -0.0419 H         1 <0>         0.2774
     38 H14         9.2430    3.0466   -0.0689 H         1 <0>         0.1374
     39 H15         8.1745    5.3941   -0.0458 H         1 <0>         0.1876
     40 H16         9.6732    1.1634   -0.0667 H         1 <0>         0.2181
     41 H17         9.3339   -0.4820   -0.0667 H         1 <0>         0.2295
@<TRIPOS>BOND
     1    1    2 1
     2    1   25 1
     3    1   26 1
     4    1   27 1
     5    2    3 1
     6    2    4 1
     7    3   28 1
     8    3   29 1
     9    3   30 1
    10    4    9 ar
    11    4    5 ar
    12    5    6 ar
    13    5   31 1
    14    6    7 ar
    15    6   32 1
    16    7    8 ar
    17    7   10 1
    18    8    9 ar
    19    8   33 1
    20    9   34 1
    21   10   11 2
    22   10   12 1
    23   12   13 1
    24   13   14 1
    25   13   35 1
    26   13   36 1
    27   14   15 2
    28   14   16 am
    29   16   17 1
    30   16   37 1
    31   17   21 1
    32   17   18 2
    33   18   19 1
    34   18   22 1
    35   19   20 2
    36   19   38 1
    37   20   21 1
    38   20   39 1
    39   22   23 2
    40   22   24 am
    41   24   40 1
    42   24   41 1
@<TRIPOS>MOLECULE
ZINC03401099
   39    40     0     0     0
SMALL
USER_CHARGES

@<TRIPOS>ATOM
      1 C1         -5.5138   -3.1478   -0.1932 C.3       1 <0>        -0.1730
      2 C2         -5.7227   -1.6598   -0.0788 C.ar      1 <0>        -0.0998
      3 C3         -6.9669   -1.1618    0.2666 C.ar      1 <0>        -0.0899
      4 C4         -7.1674    0.2028    0.3738 C.ar      1 <0>        -0.1449
      5 C5         -6.1267    1.0769    0.1364 C.ar      1 <0>        -0.0097
      6 C6         -4.8690    0.5814   -0.2123 C.ar      1 <0>        -0.1180
      7 C7         -4.6749   -0.7970   -0.3240 C.ar      1 <0>        -0.0690
      8 C8         -3.7499    1.5113   -0.4680 C.2       1 <0>         0.3558
      9 O1         -3.9472    2.7098   -0.4816 O.2       1 <0>        -0.3668
     10 O2         -2.5107    1.0302   -0.6860 O.3       1 <0>        -0.2370
     11 C9         -1.4598    2.0019   -0.9303 C.3       1 <0>        -0.0183
     12 C10        -0.1533    1.2840   -1.1512 C.2       1 <0>         0.2888
     13 O3         -0.1119    0.0727   -1.1070 O.2       1 <0>        -0.3186
     14 N1          0.9681    1.9878   -1.4033 N.am      1 <0>        -0.2625
     15 C11         2.1691    1.3270   -1.6121 C.2       1 <0>        -0.0862
     16 C12         3.4176    1.8718   -1.8882 C.2       1 <0>        -0.2734
     17 C13         4.5086    0.9419   -2.0575 C.2       1 <0>        -0.1280
     18 C14         4.2225   -0.3677   -1.9450 C.2       1 <0>        -0.3782
     19 S1          2.4755   -0.3772   -1.5996 S.3       1 <0>         0.5067
     20 C15         3.6175    3.3202   -1.9981 C.2       1 <0>         0.3845
     21 O4          2.6769    4.0775   -1.8464 O.2       1 <0>        -0.4147
     22 N2          4.8428    3.8129   -2.2670 N.am      1 <0>        -0.4219
     23 C16        -6.3470    2.5631    0.2538 C.3       1 <0>        -0.1862
     24 H1         -5.7232   -3.4666   -1.2143 H         1 <0>         0.0875
     25 H2         -4.4813   -3.3902    0.0586 H         1 <0>         0.0868
     26 H3         -6.1857   -3.6629    0.4933 H         1 <0>         0.0815
     27 H4         -7.7851   -1.8416    0.4528 H         1 <0>         0.1332
     28 H5         -8.1409    0.5848    0.6437 H         1 <0>         0.1382
     29 H6         -3.7057   -1.1867   -0.5981 H         1 <0>         0.1555
     30 H7         -1.3696    2.6638   -0.0691 H         1 <0>         0.1167
     31 H8         -1.7061    2.5886   -1.8153 H         1 <0>         0.1172
     32 H9          0.9350    2.9566   -1.4386 H         1 <0>         0.2773
     33 H10         5.5111    1.2829   -2.2701 H         1 <0>         0.1380
     34 H11         4.8912   -1.2103   -2.0406 H         1 <0>         0.1881
     35 H12         5.5924    3.2093   -2.3879 H         1 <0>         0.2183
     36 H13         4.9750    4.7711   -2.3397 H         1 <0>         0.2298
     37 H14        -6.5455    2.9800   -0.7336 H         1 <0>         0.0989
     38 H15        -7.1987    2.7537    0.9067 H         1 <0>         0.0726
     39 H16        -5.4560    3.0305    0.6731 H         1 <0>         0.1204
@<TRIPOS>BOND
     1    1    2 1
     2    1   24 1
     3    1   25 1
     4    1   26 1
     5    2    7 ar
     6    2    3 ar
     7    3    4 ar
     8    3   27 1
     9    4    5 ar
    10    4   28 1
    11    5    6 ar
    12    5   23 1
    13    6    7 ar
    14    6    8 1
    15    7   29 1
    16    8    9 2
    17    8   10 1
    18   10   11 1
    19   11   12 1
    20   11   30 1
    21   11   31 1
    22   12   13 2
    23   12   14 am
    24   14   15 1
    25   14   32 1
    26   15   19 1
    27   15   16 2
    28   16   17 1
    29   16   20 1
    30   17   18 2
    31   17   33 1
    32   18   19 1
    33   18   34 1
    34   20   21 2
    35   20   22 am
    36   22   35 1
    37   22   36 1
    38   23   37 1
    39   23   38 1
    40   23   39 1
@<TRIPOS>MOLECULE
ZINC03403272
   40    41     0     0     0
SMALL
USER_CHARGES

@<TRIPOS>ATOM
      1 C1         -6.2700    5.9393    0.0647 C.3       1 <0>        -0.2120
      2 C2         -4.8484    5.3737    0.0550 C.3       1 <0>        -0.0180
      3 O1         -4.9038    3.9458    0.0471 O.3       1 <0>        -0.2083
      4 C3         -3.7195    3.2834    0.0379 C.ar      1 <0>         0.1340
      5 C4         -3.7029    1.8934    0.0299 C.ar      1 <0>        -0.1799
      6 C5         -2.5036    1.2174    0.0205 C.ar      1 <0>        -0.0263
      7 C6         -1.3014    1.9308    0.0187 C.ar      1 <0>        -0.1608
      8 C7         -1.3226    3.3285    0.0322 C.ar      1 <0>        -0.0321
      9 C8         -2.5263    3.9967    0.0361 C.ar      1 <0>        -0.2427
     10 C9         -0.0144    1.2108    0.0087 C.2       1 <0>         0.3581
     11 O2          0.0021   -0.0041    0.0020 O.2       1 <0>        -0.3677
     12 O3          1.1432    1.9004    0.0013 O.3       1 <0>        -0.2397
     13 C10         2.3715    1.1262   -0.0145 C.3       1 <0>        -0.0176
     14 C11         3.5541    2.0604   -0.0208 C.2       1 <0>         0.2889
     15 O4          3.3789    3.2605   -0.0127 O.2       1 <0>        -0.3200
     16 N1          4.8063    1.5623   -0.0354 N.am      1 <0>        -0.2624
     17 C12         5.8944    2.4218   -0.0412 C.2       1 <0>        -0.0858
     18 C13         7.2470    2.1024   -0.0502 C.2       1 <0>        -0.2734
     19 C14         8.1751    3.2079   -0.0582 C.2       1 <0>        -0.1278
     20 C15         7.6535    4.4478   -0.0463 C.2       1 <0>        -0.3784
     21 S1          5.8973    4.1534   -0.0314 S.3       1 <0>         0.5059
     22 C16         7.7085    0.7107   -0.0549 C.2       1 <0>         0.3844
     23 O5          6.8996   -0.1987   -0.0510 O.2       1 <0>        -0.4143
     24 N2          9.0284    0.4384   -0.0636 N.am      1 <0>        -0.4219
     25 H1         -6.2277    7.0284    0.0708 H         1 <0>         0.0888
     26 H2         -6.8016    5.6012   -0.8248 H         1 <0>         0.0897
     27 H3         -6.7935    5.5910    0.9551 H         1 <0>         0.0897
     28 H4         -4.3168    5.7118    0.9445 H         1 <0>         0.0776
     29 H5         -4.3249    5.7220   -0.8354 H         1 <0>         0.0776
     30 H6         -4.6322    1.3430    0.0313 H         1 <0>         0.1512
     31 H7         -2.4916    0.1374    0.0143 H         1 <0>         0.1588
     32 H8         -0.3960    3.8833    0.0353 H         1 <0>         0.1564
     33 H9         -2.5436    5.0765    0.0420 H         1 <0>         0.1419
     34 H10         2.4134    0.4930    0.8717 H         1 <0>         0.1174
     35 H11         2.3964    0.5026   -0.9082 H         1 <0>         0.1174
     36 H12         4.9464    0.6025   -0.0419 H         1 <0>         0.2775
     37 H13         9.2429    3.0464   -0.0689 H         1 <0>         0.1379
     38 H14         8.1744    5.3939   -0.0458 H         1 <0>         0.1880
     39 H15         9.6731    1.1632   -0.0667 H         1 <0>         0.2183
     40 H16         9.3337   -0.4822   -0.0667 H         1 <0>         0.2299
@<TRIPOS>BOND
     1    1    2 1
     2    1   25 1
     3    1   26 1
     4    1   27 1
     5    2    3 1
     6    2   28 1
     7    2   29 1
     8    3    4 1
     9    4    9 ar
    10    4    5 ar
    11    5    6 ar
    12    5   30 1
    13    6    7 ar
    14    6   31 1
    15    7    8 ar
    16    7   10 1
    17    8    9 ar
    18    8   32 1
    19    9   33 1
    20   10   11 2
    21   10   12 1
    22   12   13 1
    23   13   14 1
    24   13   34 1
    25   13   35 1
    26   14   15 2
    27   14   16 am
    28   16   17 1
    29   16   36 1
    30   17   21 1
    31   17   18 2
    32   18   19 1
    33   18   22 1
    34   19   20 2
    35   19   37 1
    36   20   21 1
    37   20   38 1
    38   22   23 2
    39   22   24 am
    40   24   39 1
    41   24   40 1
@<TRIPOS>MOLECULE
ZINC03406014
   40    41     0     0     0
SMALL
USER_CHARGES

@<TRIPOS>ATOM
      1 C1          2.4257    4.1084    0.0005 C.3       1 <0>        -0.0631
      2 O1          1.1601    3.4449    0.0090 O.3       1 <0>        -0.2113
      3 C2          1.1759    2.0860    0.0020 C.ar      1 <0>         0.1043
      4 C3         -0.0167    1.3772    0.0096 C.ar      1 <0>        -0.1563
      5 C4          0.0021   -0.0041    0.0020 C.ar      1 <0>        -0.0713
      6 C5          1.2080   -0.6802   -0.0131 C.ar      1 <0>        -0.1155
      7 C6          2.3980    0.0239   -0.0207 C.ar      1 <0>        -0.0678
      8 C7          2.3846    1.4052   -0.0127 C.ar      1 <0>        -0.2191
      9 C8          1.2256   -2.1871   -0.0209 C.3       1 <0>        -0.1031
     10 C9          1.2176   -2.6822   -1.4442 C.2       1 <0>         0.2986
     11 O2          1.1995   -1.8925   -2.3585 O.2       1 <0>        -0.3471
     12 O3          1.2305   -4.0006   -1.6963 O.3       1 <0>        -0.2416
     13 C10         1.2217   -4.4052   -3.0907 C.3       1 <0>        -0.0197
     14 C11         1.2384   -5.9096   -3.1773 C.2       1 <0>         0.2880
     15 O4          1.2560   -6.5752   -2.1636 O.2       1 <0>        -0.3175
     16 N1          1.2339   -6.5154   -4.3813 N.am      1 <0>        -0.2628
     17 C12         1.2492   -7.8996   -4.4610 C.2       1 <0>        -0.0863
     18 C13         1.2419   -8.6991   -5.5978 C.2       1 <0>        -0.2736
     19 C14         1.2657  -10.1270   -5.3875 C.2       1 <0>        -0.1281
     20 C15         1.2828  -10.5600   -4.1141 C.2       1 <0>        -0.3783
     21 S1          1.2746   -9.0513   -3.1681 S.3       1 <0>         0.5071
     22 C16         1.2149   -8.1205   -6.9448 C.2       1 <0>         0.3844
     23 O5          1.1984   -6.9119   -7.0877 O.2       1 <0>        -0.4147
     24 N2          1.2085   -8.9269   -8.0247 N.am      1 <0>        -0.4220
     25 H1          2.9777    3.8266   -0.8961 H         1 <0>         0.0701
     26 H2          2.2703    5.1873    0.0074 H         1 <0>         0.1083
     27 H3          2.9944    3.8176    0.8838 H         1 <0>         0.0674
     28 H4         -0.9589    1.9049    0.0169 H         1 <0>         0.1451
     29 H5         -0.9260   -0.5563    0.0083 H         1 <0>         0.1340
     30 H6          3.3387   -0.5065   -0.0325 H         1 <0>         0.1303
     31 H7          3.3144    1.9547   -0.0186 H         1 <0>         0.1361
     32 H8          2.1247   -2.5426    0.4824 H         1 <0>         0.1198
     33 H9          0.3449   -2.5634    0.4997 H         1 <0>         0.1204
     34 H10         0.3225   -4.0234   -3.5742 H         1 <0>         0.1170
     35 H11         2.1023   -4.0026   -3.5914 H         1 <0>         0.1165
     36 H12         1.2198   -5.9830   -5.1920 H         1 <0>         0.2773
     37 H13         1.2657  -10.8183   -6.2173 H         1 <0>         0.1379
     38 H14         1.2981  -11.5776   -3.7524 H         1 <0>         0.1881
     39 H15         1.2217   -9.8901   -7.9108 H         1 <0>         0.2183
     40 H16         1.1907   -8.5441   -8.9158 H         1 <0>         0.2298
@<TRIPOS>BOND
     1    1    2 1
     2    1   25 1
     3    1   26 1
     4    1   27 1
     5    2    3 1
     6    3    8 ar
     7    3    4 ar
     8    4    5 ar
     9    4   28 1
    10    5    6 ar
    11    5   29 1
    12    6    7 ar
    13    6    9 1
    14    7    8 ar
    15    7   30 1
    16    8   31 1
    17    9   10 1
    18    9   32 1
    19    9   33 1
    20   10   11 2
    21   10   12 1
    22   12   13 1
    23   13   14 1
    24   13   34 1
    25   13   35 1
    26   14   15 2
    27   14   16 am
    28   16   17 1
    29   16   36 1
    30   17   21 1
    31   17   18 2
    32   18   19 1
    33   18   22 1
    34   19   20 2
    35   19   37 1
    36   20   21 1
    37   20   38 1
    38   22   23 2
    39   22   24 am
    40   24   39 1
    41   24   40 1
@<TRIPOS>MOLECULE
ZINC03406022
   37    38     0     0     0
SMALL
USER_CHARGES

@<TRIPOS>ATOM
      1 C1         -3.7018   -4.8753    0.0122 C.3       1 <0>        -0.0630
      2 O1         -2.4338   -4.2163    0.0031 O.3       1 <0>        -0.2081
      3 C2         -2.4447   -2.8573    0.0105 C.ar      1 <0>         0.0810
      4 C3         -3.6530   -2.1731    0.0267 C.ar      1 <0>        -0.1894
      5 C4         -3.6705   -0.7907    0.0343 C.ar      1 <0>        -0.1069
      6 C5         -2.4870   -0.0812    0.0312 C.ar      1 <0>        -0.1134
      7 C6         -1.2672   -0.7601    0.0101 C.ar      1 <0>        -0.0801
      8 C7         -1.2513   -2.1558    0.0024 C.ar      1 <0>        -0.0963
      9 C8          0.0021   -0.0041    0.0020 C.2       1 <0>         0.3538
     10 O2          1.0621   -0.5970   -0.0113 O.2       1 <0>        -0.3576
     11 O3         -0.0162    1.3429    0.0094 O.3       1 <0>        -0.2361
     12 C9          1.2684    2.0196    0.0008 C.3       1 <0>        -0.0180
     13 C10         1.0507    3.5108    0.0109 C.2       1 <0>         0.2889
     14 O4         -0.0761    3.9590    0.0240 O.2       1 <0>        -0.3187
     15 N1          2.1083    4.3463    0.0053 N.am      1 <0>        -0.2624
     16 C11         1.9080    5.7183    0.0146 C.2       1 <0>        -0.0864
     17 C12         2.8610    6.7299    0.0166 C.2       1 <0>        -0.2731
     18 C13         2.3678    8.0865    0.0234 C.2       1 <0>        -0.1280
     19 C14         1.0332    8.2547    0.0374 C.2       1 <0>        -0.3781
     20 S1          0.4100    6.5865    0.0341 S.3       1 <0>         0.5067
     21 C15         4.2970    6.4338    0.0084 C.2       1 <0>         0.3844
     22 O5          4.6801    5.2786   -0.0004 O.2       1 <0>        -0.4144
     23 N2          5.1928    7.4408    0.0107 N.am      1 <0>        -0.4219
     24 H1         -4.2522   -4.5918    0.9093 H         1 <0>         0.0684
     25 H2         -4.2699   -4.5822   -0.8706 H         1 <0>         0.0685
     26 H3         -3.5503   -5.9547    0.0049 H         1 <0>         0.1116
     27 H4         -4.5825   -2.7230    0.0337 H         1 <0>         0.1381
     28 H5         -4.6136   -0.2644    0.0472 H         1 <0>         0.1379
     29 H6         -2.5043    0.9986    0.0413 H         1 <0>         0.1569
     30 H7         -0.3109   -2.6867   -0.0101 H         1 <0>         0.1679
     31 H8          1.8378    1.7296    0.8838 H         1 <0>         0.1179
     32 H9          1.8208    1.7391   -0.8960 H         1 <0>         0.1179
     33 H10         3.0096    3.9877   -0.0053 H         1 <0>         0.2776
     34 H11         3.0416    8.9306    0.0219 H         1 <0>         0.1380
     35 H12         0.4743    9.1788    0.0481 H         1 <0>         0.1882
     36 H13         4.8875    8.3614    0.0177 H         1 <0>         0.2183
     37 H14         6.1428    7.2448    0.0053 H         1 <0>         0.2299
@<TRIPOS>BOND
     1    1    2 1
     2    1   24 1
     3    1   25 1
     4    1   26 1
     5    2    3 1
     6    3    8 ar
     7    3    4 ar
     8    4    5 ar
     9    4   27 1
    10    5    6 ar
    11    5   28 1
    12    6    7 ar
    13    6   29 1
    14    7    8 ar
    15    7    9 1
    16    8   30 1
    17    9   10 2
    18    9   11 1
    19   11   12 1
    20   12   13 1
    21   12   31 1
    22   12   32 1
    23   13   14 2
    24   13   15 am
    25   15   16 1
    26   15   33 1
    27   16   20 1
    28   16   17 2
    29   17   18 1
    30   17   21 1
    31   18   19 2
    32   18   34 1
    33   19   20 1
    34   19   35 1
    35   21   22 2
    36   21   23 am
    37   23   36 1
    38   23   37 1
@<TRIPOS>MOLECULE
ZINC03408381
   41    42     0     0     0
SMALL
USER_CHARGES

@<TRIPOS>ATOM
      1 C1         -3.6942   -4.8821    0.0106 C.3       1 <0>        -0.0628
      2 O1         -2.4282   -4.2193    0.0021 O.3       1 <0>        -0.2046
      3 C2         -2.4431   -2.8603    0.0100 C.ar      1 <0>         0.1182
      4 C3         -1.2508   -2.1557    0.0024 C.ar      1 <0>        -0.1357
      5 C4         -1.2673   -0.7602    0.0101 C.ar      1 <0>        -0.0453
      6 C5         -2.4864   -0.0810    0.0311 C.ar      1 <0>        -0.1451
      7 C6         -3.6739   -0.7938    0.0328 C.ar      1 <0>         0.1180
      8 C7         -3.6527   -2.1810    0.0251 C.ar      1 <0>        -0.2868
      9 O2         -4.8616   -0.1334    0.0472 O.3       1 <0>        -0.2034
     10 C8         -6.0473   -0.9310    0.0537 C.3       1 <0>        -0.0633
     11 C9          0.0021   -0.0041    0.0020 C.2       1 <0>         0.3555
     12 O3          1.0621   -0.5970   -0.0113 O.2       1 <0>        -0.3550
     13 O4         -0.0162    1.3429    0.0094 O.3       1 <0>        -0.2337
     14 C10         1.2684    2.0196    0.0008 C.3       1 <0>        -0.0180
     15 C11         1.0507    3.5108    0.0109 C.2       1 <0>         0.2884
     16 O5         -0.0761    3.9590    0.0240 O.2       1 <0>        -0.3163
     17 N1          2.1083    4.3462    0.0053 N.am      1 <0>        -0.2626
     18 C12         1.9080    5.7183    0.0146 C.2       1 <0>        -0.0864
     19 C13         2.8610    6.7299    0.0166 C.2       1 <0>        -0.2736
     20 C14         2.3678    8.0865    0.0234 C.2       1 <0>        -0.1282
     21 C15         1.0332    8.2547    0.0374 C.2       1 <0>        -0.3786
     22 S1          0.4100    6.5865    0.0341 S.3       1 <0>         0.5087
     23 C16         4.2970    6.4338    0.0084 C.2       1 <0>         0.3845
     24 O6          4.6801    5.2785   -0.0004 O.2       1 <0>        -0.4147
     25 N2          5.1928    7.4408    0.0107 N.am      1 <0>        -0.4220
     26 H1         -4.2457   -4.6004    0.9076 H         1 <0>         0.0676
     27 H2         -4.2630   -4.5903   -0.8723 H         1 <0>         0.0676
     28 H3         -3.5395   -5.9610    0.0029 H         1 <0>         0.1122
     29 H4         -0.3096   -2.6854   -0.0097 H         1 <0>         0.1687
     30 H5         -2.5038    0.9988    0.0420 H         1 <0>         0.1700
     31 H6         -4.5805   -2.7337    0.0306 H         1 <0>         0.1433
     32 H7         -6.0539   -1.5649    0.9404 H         1 <0>         0.0672
     33 H8         -6.9223   -0.2811    0.0652 H         1 <0>         0.1123
     34 H9         -6.0701   -1.5554   -0.8395 H         1 <0>         0.0673
     35 H10         1.8378    1.7296    0.8838 H         1 <0>         0.1178
     36 H11         1.8208    1.7391   -0.8960 H         1 <0>         0.1177
     37 H12         3.0096    3.9877   -0.0053 H         1 <0>         0.2773
     38 H13         3.0416    8.9306    0.0219 H         1 <0>         0.1378
     39 H14         0.4743    9.1788    0.0481 H         1 <0>         0.1880
     40 H15         4.8875    8.3614    0.0177 H         1 <0>         0.2183
     41 H16         6.1428    7.2448    0.0053 H         1 <0>         0.2297
@<TRIPOS>BOND
     1    1    2 1
     2    1   26 1
     3    1   27 1
     4    1   28 1
     5    2    3 1
     6    3    8 ar
     7    3    4 ar
     8    4    5 ar
     9    4   29 1
    10    5    6 ar
    11    5   11 1
    12    6    7 ar
    13    6   30 1
    14    7    8 ar
    15    7    9 1
    16    8   31 1
    17    9   10 1
    18   10   32 1
    19   10   33 1
    20   10   34 1
    21   11   12 2
    22   11   13 1
    23   13   14 1
    24   14   15 1
    25   14   35 1
    26   14   36 1
    27   15   16 2
    28   15   17 am
    29   17   18 1
    30   17   37 1
    31   18   22 1
    32   18   19 2
    33   19   20 1
    34   19   23 1
    35   20   21 2
    36   20   38 1
    37   21   22 1
    38   21   39 1
    39   23   24 2
    40   23   25 am
    41   25   40 1
    42   25   41 1
@<TRIPOS>MOLECULE
ZINC03409156
   41    42     0     0     0
SMALL
USER_CHARGES

@<TRIPOS>ATOM
      1 C1         -9.5491   -0.2503    0.0452 C.3       1 <0>        -0.0657
      2 O1         -8.4843    0.7028    0.0459 O.3       1 <0>        -0.1958
      3 C2         -7.2161    0.2116    0.0373 C.ar      1 <0>         0.0607
      4 C3         -7.0035   -1.1566    0.0284 C.ar      1 <0>        -0.1824
      5 C4         -5.7149   -1.6646    0.0201 C.ar      1 <0>        -0.1161
      6 C5         -4.6312   -0.8140    0.0196 C.ar      1 <0>        -0.1030
      7 C6         -4.8291    0.5701    0.0281 C.ar      1 <0>        -0.1051
      8 C7         -6.1321    1.0839    0.0428 C.ar      1 <0>         0.1039
      9 O2         -6.3362    2.4257    0.0568 O.3       1 <0>        -0.2051
     10 C8         -6.4436    3.0788   -1.2097 C.3       1 <0>        -0.0449
     11 C9         -3.6723    1.4839    0.0275 C.2       1 <0>         0.3519
     12 O3         -3.8479    2.6862    0.0349 O.2       1 <0>        -0.3417
     13 O4         -2.4203    0.9858    0.0189 O.3       1 <0>        -0.2396
     14 C10        -1.3296    1.9443    0.0189 C.3       1 <0>        -0.0172
     15 C11        -0.0144    1.2086    0.0087 C.2       1 <0>         0.2889
     16 O5          0.0021   -0.0041    0.0020 O.2       1 <0>        -0.3193
     17 N1          1.1435    1.8983    0.0013 N.am      1 <0>        -0.2625
     18 C12         2.3536    1.2214   -0.0139 C.2       1 <0>        -0.0861
     19 C13         3.6387    1.7505   -0.0289 C.2       1 <0>        -0.2734
     20 C14         4.7298    0.8055   -0.0384 C.2       1 <0>        -0.1279
     21 C15         4.4105   -0.5012   -0.0429 C.2       1 <0>        -0.3784
     22 S1          2.6299   -0.4879   -0.0263 S.3       1 <0>         0.5065
     23 C16         3.8746    3.1977   -0.0310 C.2       1 <0>         0.3844
     24 O6          2.9323    3.9679   -0.0194 O.2       1 <0>        -0.4144
     25 N2          5.1349    3.6750   -0.0458 N.am      1 <0>        -0.4220
     26 H1         -9.4812   -0.8703   -0.8487 H         1 <0>         0.0661
     27 H2         -9.4731   -0.8806    0.9312 H         1 <0>         0.0696
     28 H3        -10.5051    0.2732    0.0526 H         1 <0>         0.1127
     29 H4         -7.8469   -1.8313    0.0284 H         1 <0>         0.1407
     30 H5         -5.5589   -2.7333    0.0135 H         1 <0>         0.1388
     31 H6         -3.6290   -1.2162    0.0123 H         1 <0>         0.1594
     32 H7         -5.5240    2.9284   -1.7752 H         1 <0>         0.0646
     33 H8         -7.2836    2.6605   -1.7641 H         1 <0>         0.0578
     34 H9         -6.6050    4.1458   -1.0558 H         1 <0>         0.1081
     35 H10        -1.3916    2.5653    0.9126 H         1 <0>         0.1191
     36 H11        -1.4000    2.5749   -0.8673 H         1 <0>         0.1158
     37 H12         1.1304    2.8682    0.0067 H         1 <0>         0.2775
     38 H13         5.7587    1.1336   -0.0461 H         1 <0>         0.1379
     39 H14         5.0742   -1.3532   -0.0537 H         1 <0>         0.1881
     40 H15         5.8859    3.0612   -0.0551 H         1 <0>         0.2183
     41 H16         5.2910    4.6324   -0.0472 H         1 <0>         0.2299
@<TRIPOS>BOND
     1    1    2 1
     2    1   26 1
     3    1   27 1
     4    1   28 1
     5    2    3 1
     6    3    8 ar
     7    3    4 ar
     8    4    5 ar
     9    4   29 1
    10    5    6 ar
    11    5   30 1
    12    6    7 ar
    13    6   31 1
    14    7    8 ar
    15    7   11 1
    16    8    9 1
    17    9   10 1
    18   10   32 1
    19   10   33 1
    20   10   34 1
    21   11   12 2
    22   11   13 1
    23   13   14 1
    24   14   15 1
    25   14   35 1
    26   14   36 1
    27   15   16 2
    28   15   17 am
    29   17   18 1
    30   17   37 1
    31   18   22 1
    32   18   19 2
    33   19   20 1
    34   19   23 1
    35   20   21 2
    36   20   38 1
    37   21   22 1
    38   21   39 1
    39   23   24 2
    40   23   25 am
    41   25   40 1
    42   25   41 1
@<TRIPOS>MOLECULE
ZINC03414169
   42    43     0     0     0
SMALL
USER_CHARGES

@<TRIPOS>ATOM
      1 C1          5.6284   -7.3219    0.7444 C.3       1 <0>        -0.1751
      2 C2          5.6309   -5.9132    0.2091 C.ar      1 <0>        -0.0560
      3 C3          6.7640   -5.4089   -0.4031 C.ar      1 <0>        -0.1401
      4 C4          6.7702   -4.1172   -0.8959 C.ar      1 <0>        -0.1084
      5 C5          5.6439   -3.3262   -0.7787 C.ar      1 <0>        -0.1355
      6 C6          4.5047   -3.8295   -0.1646 C.ar      1 <0>         0.0622
      7 C7          4.5037   -5.1255    0.3349 C.ar      1 <0>        -0.1112
      8 C8          3.2716   -5.6736    1.0076 C.3       1 <0>        -0.1753
      9 N1          3.3621   -3.0308   -0.0443 N.am      1 <0>        -0.3160
     10 C9          3.4758   -1.6879   -0.0418 C.2       1 <0>         0.3212
     11 O1          4.5736   -1.1722   -0.0429 O.2       1 <0>        -0.3268
     12 C10         2.2390   -0.8270   -0.0378 C.3       1 <0>        -0.3796
     13 S1          2.7197    0.9222   -0.0352 S.3       1 <0>         0.4215
     14 C11         1.1842    1.7863   -0.0306 C.ar      1 <0>        -0.1610
     15 C12        -0.0137    1.0752   -0.0298 C.ar      1 <0>        -0.1775
     16 C13        -1.2067    1.7396   -0.0314 C.ar      1 <0>        -0.0467
     17 C14        -1.2299    3.1377   -0.0234 C.ar      1 <0>        -0.1569
     18 C15        -0.0290    3.8542   -0.0247 C.ar      1 <0>         0.0149
     19 C16         1.1703    3.1792   -0.0283 C.ar      1 <0>        -0.1257
     20 N2          2.4445    3.9327   -0.0291 N.pl3     1 <0>         0.5474
     21 O2          2.4317    5.1506   -0.0271 O.2       1 <0>        -0.3433
     22 O3          3.5056    3.3348   -0.0319 O.3       1 <0>        -0.3356
     23 C17        -2.5183    3.8554   -0.0195 C.2       1 <0>         0.3515
     24 O4         -2.5370    5.0712   -0.0175 O.2       1 <0>        -0.3541
     25 N3         -3.6749    3.1636   -0.0183 N.am      1 <0>        -0.4263
     26 H1          5.9649   -7.3173    1.7811 H         1 <0>         0.0880
     27 H2          4.6184   -7.7287    0.6920 H         1 <0>         0.0810
     28 H3          6.2999   -7.9388    0.1472 H         1 <0>         0.0836
     29 H4          7.6459   -6.0254   -0.4960 H         1 <0>         0.1314
     30 H5          7.6566   -3.7263   -1.3734 H         1 <0>         0.1361
     31 H6          5.6491   -2.3175   -1.1645 H         1 <0>         0.1708
     32 H7          2.6355   -6.1545    0.2645 H         1 <0>         0.0808
     33 H8          3.5641   -6.4035    1.7625 H         1 <0>         0.0924
     34 H9          2.7242   -4.8594    1.4824 H         1 <0>         0.0715
     35 H10         2.4882   -3.4437    0.0373 H         1 <0>         0.2325
     36 H11         1.6489   -1.0429    0.8529 H         1 <0>         0.1202
     37 H12         1.6455   -1.0394   -0.9271 H         1 <0>         0.1214
     38 H13         0.0012   -0.0047   -0.0323 H         1 <0>         0.1427
     39 H14        -2.1333    1.1847   -0.0353 H         1 <0>         0.1347
     40 H15        -0.0426    4.9341   -0.0232 H         1 <0>         0.1940
     41 H16        -3.6600    2.1937   -0.0199 H         1 <0>         0.2136
     42 H17        -4.5224    3.6355   -0.0158 H         1 <0>         0.2380
@<TRIPOS>BOND
     1    1    2 1
     2    1   26 1
     3    1   27 1
     4    1   28 1
     5    2    7 ar
     6    2    3 ar
     7    3    4 ar
     8    3   29 1
     9    4    5 ar
    10    4   30 1
    11    5    6 ar
    12    5   31 1
    13    6    7 ar
    14    6    9 1
    15    7    8 1
    16    8   32 1
    17    8   33 1
    18    8   34 1
    19    9   10 am
    20    9   35 1
    21   10   11 2
    22   10   12 1
    23   12   13 1
    24   12   36 1
    25   12   37 1
    26   13   14 1
    27   14   19 ar
    28   14   15 ar
    29   15   16 ar
    30   15   38 1
    31   16   17 ar
    32   16   39 1
    33   17   18 ar
    34   17   23 1
    35   18   19 ar
    36   18   40 1
    37   19   20 1
    38   20   21 2
    39   20   22 1
    40   23   24 2
    41   23   25 am
    42   25   41 1
    43   25   42 1
@<TRIPOS>MOLECULE
ZINC03415139
   40    41     0     0     0
SMALL
USER_CHARGES

@<TRIPOS>ATOM
      1 C1          1.9823   -4.6932    0.9539 C.3       1 <0>        -0.2277
      2 C2          2.5900   -4.0385   -0.2883 C.3       1 <0>         0.0163
      3 H1          2.0380   -4.3556   -1.1730 H         1 <0>         0.1379
      4 C3          2.5094   -2.5394   -0.1564 C.2       1 <0>         0.2945
      5 O1          3.5235   -1.8741   -0.1685 O.2       1 <0>        -0.3529
      6 N1          1.3104   -1.9380   -0.0250 N.am      1 <0>        -0.3210
      7 C4          1.2261   -0.5399   -0.0096 C.ar      1 <0>         0.0436
      8 C5          2.1095    0.2174   -0.7676 C.ar      1 <0>        -0.1095
      9 C6          2.0267    1.5952   -0.7520 C.ar      1 <0>        -0.1074
     10 C7          1.0599    2.2241    0.0216 C.ar      1 <0>         0.0451
     11 C8          0.1766    1.4668    0.7797 C.ar      1 <0>        -0.1448
     12 C9          0.2594    0.0889    0.7641 C.ar      1 <0>        -0.1444
     13 N2          0.9762    3.6222    0.0377 N.am      1 <0>        -0.3283
     14 C10         1.2377    4.3259   -1.0816 C.2       1 <0>         0.3007
     15 O2          1.6261    3.7560   -2.0794 O.2       1 <0>        -0.3558
     16 C11         1.0474    5.8208   -1.0936 C.3       1 <0>        -0.2362
     17 N3          3.9923   -4.4426   -0.4167 N.am      1 <0>        -0.3656
     18 C12         4.3064   -5.6001   -1.0317 C.2       1 <0>         0.3959
     19 O3          3.4252   -6.3094   -1.4802 O.2       1 <0>        -0.3648
     20 C13         5.7102   -6.0047   -1.1602 C.2       1 <0>        -0.1203
     21 C14         6.1649   -7.1457   -1.7567 C.2       1 <0>        -0.1257
     22 C15         7.5646   -7.1250   -1.6529 C.2       1 <0>        -0.2353
     23 C16         7.8986   -5.9867   -1.0058 C.2       1 <0>        -0.0713
     24 O4          6.7789   -5.3119   -0.7151 O.3       1 <0>        -0.0504
     25 H2          0.9390   -4.3924    1.0494 H         1 <0>         0.0751
     26 H3          2.0406   -5.7774    0.8585 H         1 <0>         0.1065
     27 H4          2.5343   -4.3760    1.8386 H         1 <0>         0.0885
     28 H5          0.5059   -2.4734    0.0589 H         1 <0>         0.2343
     29 H6          2.8611   -0.2716   -1.3695 H         1 <0>         0.1641
     30 H7          2.7166    2.1843   -1.3380 H         1 <0>         0.1702
     31 H8         -0.5755    1.9558    1.3811 H         1 <0>         0.1307
     32 H9         -0.4279   -0.5001    1.3533 H         1 <0>         0.1303
     33 H10         0.7300    4.0840    0.8545 H         1 <0>         0.2311
     34 H11         0.6963    6.1502   -0.1156 H         1 <0>         0.0773
     35 H12         1.9964    6.3061   -1.3213 H         1 <0>         0.1135
     36 H13         0.3117    6.0874   -1.8524 H         1 <0>         0.1150
     37 H14         4.6947   -3.8772   -0.0592 H         1 <0>         0.2532
     38 H15         5.5641   -7.9152   -2.2184 H         1 <0>         0.1750
     39 H16         8.2463   -7.8774   -2.0210 H         1 <0>         0.1613
     40 H17         8.9033   -5.6710   -0.7665 H         1 <0>         0.2014
@<TRIPOS>BOND
     1    1    2 1
     2    1   25 1
     3    1   26 1
     4    1   27 1
     5    2    3 1
     6    2    4 1
     7    2   17 1
     8    4    5 2
     9    4    6 am
    10    6    7 1
    11    6   28 1
    12    7   12 ar
    13    7    8 ar
    14    8    9 ar
    15    8   29 1
    16    9   10 ar
    17    9   30 1
    18   10   11 ar
    19   10   13 1
    20   11   12 ar
    21   11   31 1
    22   12   32 1
    23   13   14 am
    24   13   33 1
    25   14   15 2
    26   14   16 1
    27   16   34 1
    28   16   35 1
    29   16   36 1
    30   17   18 am
    31   17   37 1
    32   18   19 2
    33   18   20 1
    34   20   24 1
    35   20   21 2
    36   21   22 1
    37   21   38 1
    38   22   23 2
    39   22   39 1
    40   23   24 1
    41   23   40 1
@<TRIPOS>MOLECULE
ZINC03415256
   42    44     0     0     0
SMALL
USER_CHARGES

@<TRIPOS>ATOM
      1 C1         -0.0126    1.0758    0.0080 C.ar      1 <0>        -0.0205
      2 C2         -1.2137    1.7490    0.0173 C.ar      1 <0>        -0.2409
      3 C3         -1.2336    3.1388    0.0312 C.ar      1 <0>         0.1314
      4 C4         -0.0423    3.8548    0.0233 C.ar      1 <0>        -0.1677
      5 C5          1.1631    3.1893    0.0081 C.ar      1 <0>        -0.0599
      6 C6          1.1876    1.7920    0.0003 C.ar      1 <0>        -0.1788
      7 C7          2.4769    1.0748   -0.0154 C.2       1 <0>         0.3476
      8 O1          2.4963   -0.1410   -0.0217 O.2       1 <0>        -0.3540
      9 N1          3.6332    1.7672   -0.0227 N.am      1 <0>        -0.2595
     10 C8          4.8439    1.0937   -0.0375 C.2       1 <0>        -0.0793
     11 C9          6.1281    1.6260   -0.0468 C.2       1 <0>        -0.2817
     12 C10         7.2213    0.6833   -0.0613 C.2       1 <0>        -0.1263
     13 C11         6.9049   -0.6241   -0.0646 C.2       1 <0>        -0.3835
     14 S1          5.1243   -0.6150   -0.0411 S.3       1 <0>         0.5035
     15 C12         6.3608    3.0734   -0.0416 C.2       1 <0>         0.3862
     16 O2          5.4167    3.8415   -0.0289 O.2       1 <0>        -0.4180
     17 N2          7.6201    3.5536   -0.0510 N.am      1 <0>        -0.4232
     18 O3         -2.4195    3.7985    0.0466 O.3       1 <0>        -0.1950
     19 C13        -3.6054    3.0011    0.0541 C.3       1 <0>        -0.0142
     20 C14        -4.8334    3.9136    0.0713 C.3       1 <0>         0.0284
     21 H1         -4.7889    4.6223   -0.7557 H         1 <0>         0.1032
     22 C15        -6.1309    3.0708   -0.0119 C.3       1 <0>        -0.1914
     23 C16        -7.1513    4.0361    0.6532 C.3       1 <0>        -0.1949
     24 C17        -6.2877    4.7444    1.7190 C.3       1 <0>        -0.0232
     25 O4         -4.9174    4.6130    1.3232 O.3       1 <0>        -0.2628
     26 H2          0.0021   -0.0041    0.0020 H         1 <0>         0.1561
     27 H3         -2.1416    1.1963    0.0183 H         1 <0>         0.1400
     28 H4         -0.0620    4.9346    0.0293 H         1 <0>         0.1528
     29 H5          2.0883    3.7464    0.0019 H         1 <0>         0.1438
     30 H6          3.6177    2.7371   -0.0176 H         1 <0>         0.2766
     31 H7          8.2494    1.0137   -0.0696 H         1 <0>         0.1358
     32 H8          7.5705   -1.4745   -0.0753 H         1 <0>         0.1863
     33 H9          8.3725    2.9414   -0.0612 H         1 <0>         0.2180
     34 H10         7.7741    4.5113   -0.0476 H         1 <0>         0.2284
     35 H11        -3.6291    2.3768   -0.8391 H         1 <0>         0.0825
     36 H12        -3.6114    2.3672    0.9408 H         1 <0>         0.0903
     37 H13        -6.4001    2.8652   -1.0479 H         1 <0>         0.0986
     38 H14        -6.0362    2.1466    0.5583 H         1 <0>         0.0978
     39 H15        -7.9647    3.4804    1.1197 H         1 <0>         0.0974
     40 H16        -7.5386    4.7527   -0.0710 H         1 <0>         0.0957
     41 H17        -6.4389    4.2732    2.6903 H         1 <0>         0.0867
     42 H18        -6.5576    5.7991    1.7724 H         1 <0>         0.0876
@<TRIPOS>BOND
     1    1    6 ar
     2    1    2 ar
     3    1   26 1
     4    2    3 ar
     5    2   27 1
     6    3    4 ar
     7    3   18 1
     8    4    5 ar
     9    4   28 1
    10    5    6 ar
    11    5   29 1
    12    6    7 1
    13    7    8 2
    14    7    9 am
    15    9   10 1
    16    9   30 1
    17   10   14 1
    18   10   11 2
    19   11   12 1
    20   11   15 1
    21   12   13 2
    22   12   31 1
    23   13   14 1
    24   13   32 1
    25   15   16 2
    26   15   17 am
    27   17   33 1
    28   17   34 1
    29   18   19 1
    30   19   20 1
    31   19   35 1
    32   19   36 1
    33   20   21 1
    34   20   25 1
    35   20   22 1
    36   22   23 1
    37   22   37 1
    38   22   38 1
    39   23   24 1
    40   23   39 1
    41   23   40 1
    42   24   25 1
    43   24   41 1
    44   24   42 1
@<TRIPOS>MOLECULE
ZINC03415262
   42    44     0     0     0
SMALL
USER_CHARGES

@<TRIPOS>ATOM
      1 C1          0.0827   -2.8532   -0.0199 C.ar      1 <0>        -0.0553
      2 C2          0.0971   -4.2301   -0.0225 C.ar      1 <0>        -0.2352
      3 C3         -1.0983   -4.9395   -0.0145 C.ar      1 <0>         0.1314
      4 C4         -2.3124   -4.2629    0.0008 C.ar      1 <0>        -0.1731
      5 C5         -2.3354   -2.8862    0.0089 C.ar      1 <0>        -0.0251
      6 C6         -1.1358   -2.1691    0.0013 C.ar      1 <0>        -0.1782
      7 C7         -1.1558   -0.6938    0.0094 C.2       1 <0>         0.3473
      8 O1         -2.2169   -0.1002    0.0227 O.2       1 <0>        -0.3521
      9 N1          0.0021   -0.0041    0.0020 N.am      1 <0>        -0.2600
     10 C8         -0.0167    1.3813    0.0096 C.2       1 <0>        -0.0795
     11 C9          1.0609    2.2596    0.0041 C.2       1 <0>        -0.2825
     12 C10         0.7493    3.6691    0.0138 C.2       1 <0>        -0.1265
     13 C11        -0.5517    4.0105    0.0274 C.2       1 <0>        -0.3835
     14 S1         -1.3881    2.4384    0.0207 S.3       1 <0>         0.5057
     15 C12         2.4455    1.7781   -0.0114 C.2       1 <0>         0.3868
     16 O2          2.6740    0.5826   -0.0198 O.2       1 <0>        -0.4197
     17 N2          3.4653    2.6592   -0.0164 N.am      1 <0>        -0.4231
     18 O3         -1.0798   -6.2965   -0.0220 O.3       1 <0>        -0.1965
     19 C13         0.2020   -6.9279   -0.0376 C.3       1 <0>        -0.0094
     20 C14         0.0222   -8.4472   -0.0441 C.3       1 <0>         0.0208
     21 H1         -0.6067   -8.7577    0.7903 H         1 <0>         0.0998
     22 C15         1.3952   -9.1516    0.0262 C.3       1 <0>        -0.1887
     23 C16         1.2306  -10.3870   -0.8871 C.3       1 <0>        -0.1938
     24 C17        -0.2225  -10.2828   -1.4011 C.3       1 <0>        -0.0295
     25 O4         -0.5537   -8.8800   -1.2959 O.3       1 <0>        -0.2537
     26 H2          1.0118   -2.3027   -0.0299 H         1 <0>         0.1397
     27 H3          1.0383   -4.7596   -0.0351 H         1 <0>         0.1401
     28 H4         -3.2389   -4.8178    0.0066 H         1 <0>         0.1529
     29 H5         -3.2791   -2.3612    0.0207 H         1 <0>         0.1605
     30 H6          0.8486   -0.4776   -0.0086 H         1 <0>         0.2758
     31 H7          1.5278    4.4177    0.0107 H         1 <0>         0.1357
     32 H8         -0.9848    4.9998    0.0362 H         1 <0>         0.1865
     33 H9          3.2832    3.6119   -0.0098 H         1 <0>         0.2183
     34 H10         4.3815    2.3406   -0.0267 H         1 <0>         0.2280
     35 H11         0.7465   -6.6226   -0.9312 H         1 <0>         0.0922
     36 H12         0.7635   -6.6322    0.8486 H         1 <0>         0.0833
     37 H13         2.1799   -8.4975   -0.3539 H         1 <0>         0.0937
     38 H14         1.6160   -9.4569    1.0490 H         1 <0>         0.0939
     39 H15         1.9339  -10.3436   -1.7187 H         1 <0>         0.0961
     40 H16         1.3689  -11.3052   -0.3162 H         1 <0>         0.0918
     41 H17        -0.2822  -10.6105   -2.4390 H         1 <0>         0.1086
     42 H18        -0.8896  -10.8763   -0.7759 H         1 <0>         0.0764
@<TRIPOS>BOND
     1    1    6 ar
     2    1    2 ar
     3    1   26 1
     4    2    3 ar
     5    2   27 1
     6    3    4 ar
     7    3   18 1
     8    4    5 ar
     9    4   28 1
    10    5    6 ar
    11    5   29 1
    12    6    7 1
    13    7    8 2
    14    7    9 am
    15    9   10 1
    16    9   30 1
    17   10   14 1
    18   10   11 2
    19   11   12 1
    20   11   15 1
    21   12   13 2
    22   12   31 1
    23   13   14 1
    24   13   32 1
    25   15   16 2
    26   15   17 am
    27   17   33 1
    28   17   34 1
    29   18   19 1
    30   19   20 1
    31   19   35 1
    32   19   36 1
    33   20   21 1
    34   20   25 1
    35   20   22 1
    36   22   23 1
    37   22   37 1
    38   22   38 1
    39   23   24 1
    40   23   39 1
    41   23   40 1
    42   24   25 1
    43   24   41 1
    44   24   42 1
@<TRIPOS>MOLECULE
ZINC03417633
   42    43     0     0     0
SMALL
USER_CHARGES

@<TRIPOS>ATOM
      1 C1          2.1314    4.2327   -0.8118 C.3       1 <0>        -0.0480
      2 N1          1.1553    3.4859   -0.0146 N.pl3     1 <0>        -0.3432
      3 C2          0.1590    4.2038    0.7842 C.3       1 <0>        -0.0450
      4 C3          1.1747    2.0871   -0.0160 C.ar      1 <0>         0.1144
      5 C4          2.1192    1.4063   -0.7732 C.ar      1 <0>        -0.1925
      6 C5          2.1384    0.0258   -0.7742 C.ar      1 <0>        -0.0779
      7 C6          1.2132   -0.6820   -0.0185 C.ar      1 <0>         0.0013
      8 C7          0.2685   -0.0016    0.7382 C.ar      1 <0>        -0.1112
      9 C8          0.2493    1.3789    0.7398 C.ar      1 <0>        -0.1917
     10 N2          1.2326   -2.0833   -0.0200 N.am      1 <0>        -0.3225
     11 C9          2.4032   -2.7410   -0.1360 C.2       1 <0>         0.2952
     12 O1          3.4475   -2.1239   -0.1428 O.2       1 <0>        -0.3320
     13 C10         2.4149   -4.2431   -0.2572 C.3       1 <0>        -0.0253
     14 O2          3.7856   -4.7090   -0.3686 O.3       1 <0>        -0.2372
     15 C11         3.9722   -6.0388   -0.4854 C.2       1 <0>         0.3522
     16 O3          3.0155   -6.7883   -0.4940 O.2       1 <0>        -0.3530
     17 C12         5.3343   -6.5830   -0.6027 C.ar      1 <0>        -0.1577
     18 C13         6.4378   -5.7230   -0.5932 C.ar      1 <0>        -0.0469
     19 C14         7.7010   -6.2293   -0.7016 C.ar      1 <0>        -0.1842
     20 C15         7.9015   -7.6014   -0.8222 C.ar      1 <0>         0.1202
     21 C16         6.8186   -8.4682   -0.8337 C.ar      1 <0>        -0.2061
     22 C17         5.5325   -7.9679   -0.7187 C.ar      1 <0>         0.1532
     23 O4          4.4699   -8.8110   -0.7233 O.3       1 <0>        -0.2714
     24 O5          9.1618   -8.0933   -0.9284 O.3       1 <0>        -0.2917
     25 H1          1.7272    4.4099   -1.8085 H         1 <0>         0.0642
     26 H2          2.3401    5.1876   -0.3294 H         1 <0>         0.0760
     27 H3          3.0532    3.6564   -0.8907 H         1 <0>         0.0862
     28 H4          0.2780    3.9410    1.8353 H         1 <0>         0.0710
     29 H5          0.2990    5.2776    0.6600 H         1 <0>         0.0814
     30 H6         -0.8414    3.9270    0.4515 H         1 <0>         0.0700
     31 H7          2.8414    1.9568   -1.3578 H         1 <0>         0.1367
     32 H8          2.8729   -0.5036   -1.3630 H         1 <0>         0.1580
     33 H9         -0.4515   -0.5523    1.3253 H         1 <0>         0.1271
     34 H10        -0.4857    1.9081    1.3281 H         1 <0>         0.1335
     35 H11         0.4034   -2.5799    0.0625 H         1 <0>         0.2289
     36 H12         1.9524   -4.6825    0.6266 H         1 <0>         0.1097
     37 H13         1.8568   -4.5403   -1.1451 H         1 <0>         0.1081
     38 H14         6.2901   -4.6572   -0.4996 H         1 <0>         0.1639
     39 H15         8.5497   -5.5613   -0.6934 H         1 <0>         0.1485
     40 H16         6.9786   -9.5321   -0.9275 H         1 <0>         0.1568
     41 H17         4.1127   -8.9887   -1.6042 H         1 <0>         0.2435
     42 H18         9.5736   -8.3063   -0.0798 H         1 <0>         0.2374
@<TRIPOS>BOND
     1    1    2 1
     2    1   25 1
     3    1   26 1
     4    1   27 1
     5    2    3 1
     6    2    4 1
     7    3   28 1
     8    3   29 1
     9    3   30 1
    10    4    9 ar
    11    4    5 ar
    12    5    6 ar
    13    5   31 1
    14    6    7 ar
    15    6   32 1
    16    7    8 ar
    17    7   10 1
    18    8    9 ar
    19    8   33 1
    20    9   34 1
    21   10   11 am
    22   10   35 1
    23   11   12 2
    24   11   13 1
    25   13   14 1
    26   13   36 1
    27   13   37 1
    28   14   15 1
    29   15   16 2
    30   15   17 1
    31   17   22 ar
    32   17   18 ar
    33   18   19 ar
    34   18   38 1
    35   19   20 ar
    36   19   39 1
    37   20   21 ar
    38   20   24 1
    39   21   22 ar
    40   21   40 1
    41   22   23 1
    42   23   41 1
    43   24   42 1
@<TRIPOS>MOLECULE
ZINC03418676
   42    44     0     0     0
SMALL
USER_CHARGES

@<TRIPOS>ATOM
      1 C1          6.5556   -8.6339    0.5999 C.ar      1 <0>        -0.1250
      2 C2          6.7257   -7.2679    0.5108 C.ar      1 <0>        -0.0679
      3 C3          5.6102   -6.4334    0.4173 C.ar      1 <0>        -0.1104
      4 C4          4.3288   -6.9882    0.4206 C.ar      1 <0>        -0.0765
      5 C5          4.1734   -8.3563    0.5045 C.ar      1 <0>        -0.1244
      6 C6          5.2832   -9.1775    0.5969 C.ar      1 <0>        -0.0452
      7 C7          5.1052  -10.6708    0.6941 C.3       1 <0>         0.0341
      8 O1          5.0062  -11.0503    2.0682 O.3       1 <0>        -0.3456
      9 C8          5.7846   -4.9696    0.3215 C.2       1 <0>         0.3527
     10 O2          6.9004   -4.4895    0.3239 O.2       1 <0>        -0.3660
     11 O3          4.7062   -4.1672    0.2314 O.3       1 <0>        -0.2339
     12 C9          4.9529   -2.7392    0.1404 C.3       1 <0>        -0.0250
     13 C10         3.6388   -2.0074    0.0477 C.2       1 <0>         0.2971
     14 O4          2.5968   -2.6283    0.0573 O.2       1 <0>        -0.3242
     15 N1          3.6213   -0.6630   -0.0460 N.am      1 <0>        -0.3251
     16 C11         2.4012    0.0251   -0.0209 C.ar      1 <0>         0.0619
     17 C12         1.3458   -0.4598    0.7399 C.ar      1 <0>        -0.1270
     18 C13         0.1422    0.2175    0.7639 C.ar      1 <0>        -0.1052
     19 C14        -0.0160    1.3837    0.0296 C.ar      1 <0>         0.0044
     20 C15         1.0398    1.8734   -0.7303 C.ar      1 <0>         0.0356
     21 C16         2.2470    1.1919   -0.7559 C.ar      1 <0>        -0.1573
     22 O5          0.9062    3.0206   -1.4506 O.3       1 <0>        -0.2060
     23 C17        -0.4291    3.4730   -1.6993 C.3       1 <0>        -0.0510
     24 C18        -1.2157    3.3954   -0.3839 C.3       1 <0>        -0.0521
     25 O6         -1.2127    2.0334    0.0592 O.3       1 <0>        -0.2037
     26 H1          7.4176   -9.2806    0.6719 H         1 <0>         0.1401
     27 H2          7.7194   -6.8450    0.5130 H         1 <0>         0.1549
     28 H3          3.4617   -6.3481    0.3530 H         1 <0>         0.1582
     29 H4          3.1830   -8.7872    0.5022 H         1 <0>         0.1404
     30 H5          4.1954  -10.9632    0.1699 H         1 <0>         0.0673
     31 H6          5.9620  -11.1691    0.2404 H         1 <0>         0.0664
     32 H7          4.8900  -12.0003    2.2065 H         1 <0>         0.2122
     33 H8          5.5491   -2.5294   -0.7477 H         1 <0>         0.1096
     34 H9          5.4923   -2.4064    1.0271 H         1 <0>         0.1113
     35 H10         4.4534   -0.1719   -0.1309 H         1 <0>         0.2331
     36 H11         1.4658   -1.3674    1.3129 H         1 <0>         0.1655
     37 H12        -0.6777   -0.1619    1.3556 H         1 <0>         0.1505
     38 H13         3.0676    1.5694   -1.3479 H         1 <0>         0.1447
     39 H14        -0.4080    4.5032   -2.0547 H         1 <0>         0.1209
     40 H15        -0.8997    2.8356   -2.4479 H         1 <0>         0.0959
     41 H16        -0.7414    4.0284    0.3660 H         1 <0>         0.0934
     42 H17        -2.2414    3.7254   -0.5488 H         1 <0>         0.1215
@<TRIPOS>BOND
     1    1    6 ar
     2    1    2 ar
     3    1   26 1
     4    2    3 ar
     5    2   27 1
     6    3    4 ar
     7    3    9 1
     8    4    5 ar
     9    4   28 1
    10    5    6 ar
    11    5   29 1
    12    6    7 1
    13    7    8 1
    14    7   30 1
    15    7   31 1
    16    8   32 1
    17    9   10 2
    18    9   11 1
    19   11   12 1
    20   12   13 1
    21   12   33 1
    22   12   34 1
    23   13   14 2
    24   13   15 am
    25   15   16 1
    26   15   35 1
    27   16   21 ar
    28   16   17 ar
    29   17   18 ar
    30   17   36 1
    31   18   19 ar
    32   18   37 1
    33   19   25 1
    34   19   20 ar
    35   20   21 ar
    36   20   22 1
    37   21   38 1
    38   22   23 1
    39   23   24 1
    40   23   39 1
    41   23   40 1
    42   24   25 1
    43   24   41 1
    44   24   42 1
@<TRIPOS>MOLECULE
ZINC03418740
   41    42     0     0     0
SMALL
USER_CHARGES

@<TRIPOS>ATOM
      1 C1          7.0415    0.6842    1.0167 C.3       1 <0>        -0.1891
      2 C2          7.0133    2.0370    0.3531 C.ar      1 <0>        -0.0536
      3 C3          5.7982    2.6480    0.0716 C.ar      1 <0>         0.0589
      4 C4          5.7765    3.8969   -0.5348 C.ar      1 <0>        -0.1009
      5 C5          6.9626    4.5252   -0.8612 C.ar      1 <0>        -0.1216
      6 C6          8.1705    3.9118   -0.5847 C.ar      1 <0>        -0.0865
      7 C7          8.1954    2.6680    0.0195 C.ar      1 <0>        -0.0955
      8 N1          9.4907    2.0151    0.3141 N.pl3     1 <0>         0.5510
      9 O1         10.5317    2.6264    0.1520 O.2       1 <0>        -0.3524
     10 O2          9.5157    0.8665    0.7186 O.3       1 <0>        -0.3638
     11 N2          4.5985    2.0088    0.4034 N.am      1 <0>        -0.3185
     12 C8          3.4627    2.7252    0.5187 C.2       1 <0>         0.3006
     13 O3          3.4963    3.9341    0.4268 O.2       1 <0>        -0.3269
     14 C9          2.1511    2.0242    0.7617 C.3       1 <0>        -0.0234
     15 O4          1.0856    3.0069    0.8474 O.3       1 <0>        -0.2356
     16 C10        -0.1598    2.5414    1.0637 C.2       1 <0>         0.3536
     17 O5         -0.3506    1.3472    1.1777 O.2       1 <0>        -0.3634
     18 C11        -1.2945    3.4828    1.1564 C.ar      1 <0>        -0.1117
     19 C12        -1.0780    4.8565    1.0316 C.ar      1 <0>        -0.0772
     20 C13        -2.1429    5.7296    1.1134 C.ar      1 <0>        -0.1241
     21 C14        -3.4217    5.2475    1.3300 C.ar      1 <0>        -0.0433
     22 C15        -3.6426    3.8878    1.4602 C.ar      1 <0>        -0.1241
     23 C16        -2.5876    3.0032    1.3748 C.ar      1 <0>        -0.0666
     24 C17        -4.5793    6.2078    1.4239 C.3       1 <0>         0.0338
     25 O6         -4.7568    6.6083    2.7841 O.3       1 <0>        -0.3455
     26 H1          7.1621   -0.0898    0.2588 H         1 <0>         0.1052
     27 H2          7.8758    0.6403    1.7169 H         1 <0>         0.1326
     28 H3          6.1071    0.5238    1.5545 H         1 <0>         0.0687
     29 H4          4.8334    4.3765   -0.7513 H         1 <0>         0.1913
     30 H5          6.9465    5.4965   -1.3331 H         1 <0>         0.1519
     31 H6          9.0964    4.4051   -0.8409 H         1 <0>         0.1645
     32 H7          4.5843    1.0502    0.5506 H         1 <0>         0.2425
     33 H8          2.2056    1.4650    1.6957 H         1 <0>         0.1137
     34 H9          1.9476    1.3386   -0.0609 H         1 <0>         0.1136
     35 H10        -0.0797    5.2344    0.8670 H         1 <0>         0.1563
     36 H11        -1.9776    6.7920    1.0122 H         1 <0>         0.1409
     37 H12        -4.6433    3.5183    1.6288 H         1 <0>         0.1414
     38 H13        -2.7614    1.9421    1.4763 H         1 <0>         0.1556
     39 H14        -4.3742    7.0853    0.8107 H         1 <0>         0.0676
     40 H15        -5.4863    5.7195    1.0676 H         1 <0>         0.0672
     41 H16        -5.4867    7.2280    2.9197 H         1 <0>         0.2132
@<TRIPOS>BOND
     1    1    2 1
     2    1   26 1
     3    1   27 1
     4    1   28 1
     5    2    7 ar
     6    2    3 ar
     7    3    4 ar
     8    3   11 1
     9    4    5 ar
    10    4   29 1
    11    5    6 ar
    12    5   30 1
    13    6    7 ar
    14    6   31 1
    15    7    8 1
    16    8    9 2
    17    8   10 1
    18   11   12 am
    19   11   32 1
    20   12   13 2
    21   12   14 1
    22   14   15 1
    23   14   33 1
    24   14   34 1
    25   15   16 1
    26   16   17 2
    27   16   18 1
    28   18   23 ar
    29   18   19 ar
    30   19   20 ar
    31   19   35 1
    32   20   21 ar
    33   20   36 1
    34   21   22 ar
    35   21   24 1
    36   22   23 ar
    37   22   37 1
    38   23   38 1
    39   24   25 1
    40   24   39 1
    41   24   40 1
    42   25   41 1
@<TRIPOS>MOLECULE
ZINC03418903
   45    47     0     0     0
SMALL
USER_CHARGES

@<TRIPOS>ATOM
      1 C1          5.7372   -2.5453   -1.1595 C.3       1 <0>        -0.2300
      2 C2          4.9528   -2.7394    0.1397 C.3       1 <0>         0.0159
      3 H1          5.5306   -2.3446    0.9754 H         1 <0>         0.1272
      4 C3          3.6387   -2.0075    0.0473 C.2       1 <0>         0.2999
      5 O1          2.5968   -2.6284    0.0564 O.2       1 <0>        -0.3249
      6 N1          3.6213   -0.6630   -0.0455 N.am      1 <0>        -0.3243
      7 C4          2.4012    0.0251   -0.0201 C.ar      1 <0>         0.0621
      8 C5          1.3456   -0.4605    0.7399 C.ar      1 <0>        -0.1268
      9 C6          0.1419    0.2167    0.7638 C.ar      1 <0>        -0.1051
     10 C7         -0.0164    1.3829    0.0296 C.ar      1 <0>         0.0038
     11 C8          1.0394    1.8729   -0.7301 C.ar      1 <0>         0.0354
     12 C9          2.2469    1.1920   -0.7549 C.ar      1 <0>        -0.1582
     13 O2          0.9058    3.0202   -1.4502 O.3       1 <0>        -0.2063
     14 C10        -0.4296    3.4725   -1.6989 C.3       1 <0>        -0.0510
     15 C11        -1.2164    3.3945   -0.3836 C.3       1 <0>        -0.0520
     16 O3         -1.2132    2.0324    0.0593 O.3       1 <0>        -0.2038
     17 O4          4.7049   -4.1547    0.3485 O.3       1 <0>        -0.2307
     18 C12         5.6310   -4.8416    1.0450 C.2       1 <0>         0.3530
     19 O5          6.6187   -4.2738    1.4665 O.2       1 <0>        -0.3678
     20 C13         5.4455   -6.2855    1.2964 C.ar      1 <0>        -0.1103
     21 C14         4.3086   -6.9401    0.8184 C.ar      1 <0>        -0.0762
     22 C15         4.1442   -8.2897    1.0521 C.ar      1 <0>        -0.1246
     23 C16         5.0974   -8.9921    1.7680 C.ar      1 <0>        -0.0455
     24 C17         6.2237   -8.3484    2.2495 C.ar      1 <0>        -0.1251
     25 C18         6.4034   -7.0005    2.0180 C.ar      1 <0>        -0.0682
     26 C19         4.9084  -10.4652    2.0240 C.3       1 <0>         0.0342
     27 O6          4.1976  -10.6482    3.2500 O.3       1 <0>        -0.3452
     28 H2          6.6877   -3.0746   -1.0927 H         1 <0>         0.1013
     29 H3          5.1594   -2.9401   -1.9952 H         1 <0>         0.0992
     30 H4          5.9233   -1.4828   -1.3163 H         1 <0>         0.0823
     31 H5          4.4535   -0.1719   -0.1299 H         1 <0>         0.2331
     32 H6          1.4658   -1.3679    1.3131 H         1 <0>         0.1659
     33 H7         -0.6782   -0.1630    1.3552 H         1 <0>         0.1505
     34 H8          3.0676    1.5698   -1.3467 H         1 <0>         0.1440
     35 H9         -0.4085    4.5028   -2.0541 H         1 <0>         0.1206
     36 H10        -0.9001    2.8352   -2.4477 H         1 <0>         0.0957
     37 H11        -0.7422    4.0275    0.3665 H         1 <0>         0.0933
     38 H12        -2.2421    3.7244   -0.5486 H         1 <0>         0.1213
     39 H13         3.5616   -6.3920    0.2634 H         1 <0>         0.1575
     40 H14         3.2675   -8.7982    0.6792 H         1 <0>         0.1401
     41 H15         6.9638   -8.9027    2.8074 H         1 <0>         0.1399
     42 H16         7.2833   -6.4994    2.3937 H         1 <0>         0.1548
     43 H17         4.3400  -10.9062    1.2051 H         1 <0>         0.0669
     44 H18         5.8823  -10.9499    2.0927 H         1 <0>         0.0662
     45 H19         4.0398  -11.5744    3.4787 H         1 <0>         0.2120
@<TRIPOS>BOND
     1    1    2 1
     2    1   28 1
     3    1   29 1
     4    1   30 1
     5    2    3 1
     6    2    4 1
     7    2   17 1
     8    4    5 2
     9    4    6 am
    10    6    7 1
    11    6   31 1
    12    7   12 ar
    13    7    8 ar
    14    8    9 ar
    15    8   32 1
    16    9   10 ar
    17    9   33 1
    18   10   16 1
    19   10   11 ar
    20   11   12 ar
    21   11   13 1
    22   12   34 1
    23   13   14 1
    24   14   15 1
    25   14   35 1
    26   14   36 1
    27   15   16 1
    28   15   37 1
    29   15   38 1
    30   17   18 1
    31   18   19 2
    32   18   20 1
    33   20   25 ar
    34   20   21 ar
    35   21   22 ar
    36   21   39 1
    37   22   23 ar
    38   22   40 1
    39   23   24 ar
    40   23   26 1
    41   24   25 ar
    42   24   41 1
    43   25   42 1
    44   26   27 1
    45   26   43 1
    46   26   44 1
    47   27   45 1
@<TRIPOS>MOLECULE
ZINC03418907
   42    44     0     0     0
SMALL
USER_CHARGES

@<TRIPOS>ATOM
      1 C1         -2.3723    3.9890    7.7251 C.3       1 <0>        -0.2300
      2 C2         -3.0887    4.5254    6.4841 C.3       1 <0>         0.0166
      3 H1         -4.1012    4.1236    6.4471 H         1 <0>         0.1277
      4 C3         -3.1472    6.0298    6.5489 C.2       1 <0>         0.2995
      5 O1         -2.6286    6.6950    5.6773 O.2       1 <0>        -0.3227
      6 N1         -3.7758    6.6362    7.5754 N.am      1 <0>        -0.3247
      7 C4         -3.7474    8.0324    7.6878 C.ar      1 <0>         0.0656
      8 C5         -3.7035    8.6272    8.9416 C.ar      1 <0>        -0.1595
      9 C6         -3.6712   10.0040    9.0540 C.ar      1 <0>        -0.0967
     10 C7         -3.6918   10.7950    7.9167 C.ar      1 <0>        -0.0121
     11 C8         -3.7411   10.2014    6.6577 C.ar      1 <0>         0.0229
     12 C9         -3.7688    8.8212    6.5459 C.ar      1 <0>        -0.1142
     13 O2         -3.7531   11.1852    5.7114 O.3       1 <0>        -0.2020
     14 C10        -4.1232   12.3878    6.4115 C.3       1 <0>         0.1067
     15 O3         -3.6728   12.1517    7.7585 O.3       1 <0>        -0.2084
     16 O4         -2.3633    4.1201    5.2934 O.3       1 <0>        -0.2303
     17 C11        -2.7120    2.9446    4.7353 C.2       1 <0>         0.3536
     18 O5         -3.5978    2.2766    5.2298 O.2       1 <0>        -0.3680
     19 C12        -2.0171    2.4681    3.5219 C.ar      1 <0>        -0.1106
     20 C13        -2.3761    1.2503    2.9408 C.ar      1 <0>        -0.0680
     21 C14        -1.7234    0.8115    1.8076 C.ar      1 <0>        -0.1252
     22 C15        -0.7151    1.5752    1.2466 C.ar      1 <0>        -0.0450
     23 C16        -0.3506    2.7803    1.8205 C.ar      1 <0>        -0.1245
     24 C17        -0.9988    3.2337    2.9506 C.ar      1 <0>        -0.0757
     25 C18        -0.0066    1.0893    0.0085 C.3       1 <0>         0.0342
     26 O6         -0.6901    1.5696   -1.1509 O.3       1 <0>        -0.3450
     27 H2         -2.9168    4.2932    8.6189 H         1 <0>         0.0817
     28 H3         -2.3299    2.9008    7.6782 H         1 <0>         0.1018
     29 H4         -1.3597    4.3907    7.7621 H         1 <0>         0.0991
     30 H5         -4.2480    6.1059    8.2363 H         1 <0>         0.2350
     31 H6         -3.6913    8.0130    9.8299 H         1 <0>         0.1377
     32 H7         -3.6329   10.4644   10.0302 H         1 <0>         0.1454
     33 H8         -3.8075    8.3589    5.5706 H         1 <0>         0.1795
     34 H9         -5.2039   12.5275    6.3879 H         1 <0>         0.0871
     35 H10        -3.6149   13.2518    5.9836 H         1 <0>         0.1308
     36 H11        -3.1631    0.6534    3.3775 H         1 <0>         0.1547
     37 H12        -2.0003   -0.1301    1.3569 H         1 <0>         0.1400
     38 H13         0.4403    3.3694    1.3801 H         1 <0>         0.1404
     39 H14        -0.7162    4.1766    3.3950 H         1 <0>         0.1574
     40 H15         0.0027   -0.0006   -0.0007 H         1 <0>         0.0662
     41 H16         1.0179    1.4614    0.0065 H         1 <0>         0.0670
     42 H17        -0.2883    1.2948   -1.9864 H         1 <0>         0.2122
@<TRIPOS>BOND
     1    1    2 1
     2    1   27 1
     3    1   28 1
     4    1   29 1
     5    2    3 1
     6    2    4 1
     7    2   16 1
     8    4    5 2
     9    4    6 am
    10    6    7 1
    11    6   30 1
    12    7   12 ar
    13    7    8 ar
    14    8    9 ar
    15    8   31 1
    16    9   10 ar
    17    9   32 1
    18   10   15 1
    19   10   11 ar
    20   11   12 ar
    21   11   13 1
    22   12   33 1
    23   13   14 1
    24   14   15 1
    25   14   34 1
    26   14   35 1
    27   16   17 1
    28   17   18 2
    29   17   19 1
    30   19   24 ar
    31   19   20 ar
    32   20   21 ar
    33   20   36 1
    34   21   22 ar
    35   21   37 1
    36   22   23 ar
    37   22   25 1
    38   23   24 ar
    39   23   38 1
    40   24   39 1
    41   25   26 1
    42   25   40 1
    43   25   41 1
    44   26   42 1
@<TRIPOS>MOLECULE
ZINC03418909
   42    44     0     0     0
SMALL
USER_CHARGES

@<TRIPOS>ATOM
      1 C1         -4.3108    5.3542    6.0806 C.3       1 <0>        -0.2305
      2 C2         -3.0858    4.5313    6.4846 C.3       1 <0>         0.0166
      3 H1         -3.4073    3.6477    7.0358 H         1 <0>         0.1275
      4 C3         -2.1846    5.3670    7.3566 C.2       1 <0>         0.2996
      5 O1         -1.0767    5.6715    6.9680 O.2       1 <0>        -0.3233
      6 N1         -2.6097    5.7761    8.5684 N.am      1 <0>        -0.3247
      7 C4         -1.7389    6.4701    9.4187 C.ar      1 <0>         0.0654
      8 C5         -1.8142    6.2829   10.7924 C.ar      1 <0>        -0.1587
      9 C6         -0.9533    6.9635   11.6320 C.ar      1 <0>        -0.0965
     10 C7         -0.0189    7.8413   11.1065 C.ar      1 <0>        -0.0120
     11 C8          0.0554    8.0352    9.7293 C.ar      1 <0>         0.0224
     12 C9         -0.8048    7.3491    8.8882 C.ar      1 <0>        -0.1147
     13 O2          1.0456    8.9380    9.4685 O.3       1 <0>        -0.2024
     14 C10         1.3011    9.6012   10.7206 C.3       1 <0>         0.1067
     15 O3          0.9255    8.6234   11.7085 O.3       1 <0>        -0.2082
     16 O4         -2.3632    4.1223    5.2934 O.3       1 <0>        -0.2304
     17 C11        -2.7152    2.9466    4.7381 C.2       1 <0>         0.3537
     18 O5         -3.6015    2.2812    5.2353 O.2       1 <0>        -0.3679
     19 C12        -2.0233    2.4664    3.5244 C.ar      1 <0>        -0.1105
     20 C13        -2.3857    1.2482    2.9462 C.ar      1 <0>        -0.0680
     21 C14        -1.7358    0.8060    1.8126 C.ar      1 <0>        -0.1251
     22 C15        -0.7269    1.5666    1.2486 C.ar      1 <0>        -0.0450
     23 C16        -0.3590    2.7721    1.8196 C.ar      1 <0>        -0.1244
     24 C17        -1.0044    3.2289    2.9500 C.ar      1 <0>        -0.0758
     25 C18        -0.0215    1.0770    0.0102 C.3       1 <0>         0.0340
     26 O6         -0.7059    1.5566   -1.1490 O.3       1 <0>        -0.3460
     27 H2         -3.9892    6.2378    5.5294 H         1 <0>         0.0987
     28 H3         -4.9626    4.7497    5.4499 H         1 <0>         0.1033
     29 H4         -4.8532    5.6612    6.9748 H         1 <0>         0.0818
     30 H5         -3.5185    5.5901    8.8518 H         1 <0>         0.2350
     31 H6         -2.5442    5.6022   11.2049 H         1 <0>         0.1386
     32 H7         -1.0112    6.8135   12.7000 H         1 <0>         0.1456
     33 H8         -0.7486    7.4977    7.8200 H         1 <0>         0.1788
     34 H9          0.6846   10.4954   10.8131 H         1 <0>         0.0868
     35 H10         2.3578    9.8521   10.8125 H         1 <0>         0.1308
     36 H11        -3.1732    0.6537    3.3852 H         1 <0>         0.1547
     37 H12        -2.0153   -0.1359    1.3642 H         1 <0>         0.1400
     38 H13         0.4323    3.3587    1.3768 H         1 <0>         0.1403
     39 H14        -0.7192    4.1720    3.3922 H         1 <0>         0.1572
     40 H15        -0.0144   -0.0129    0.0030 H         1 <0>         0.0667
     41 H16         1.0038    1.4471    0.0058 H         1 <0>         0.0675
     42 H17        -0.3061    1.2793   -1.9846 H         1 <0>         0.2122
@<TRIPOS>BOND
     1    1    2 1
     2    1   27 1
     3    1   28 1
     4    1   29 1
     5    2    3 1
     6    2    4 1
     7    2   16 1
     8    4    5 2
     9    4    6 am
    10    6    7 1
    11    6   30 1
    12    7   12 ar
    13    7    8 ar
    14    8    9 ar
    15    8   31 1
    16    9   10 ar
    17    9   32 1
    18   10   15 1
    19   10   11 ar
    20   11   12 ar
    21   11   13 1
    22   12   33 1
    23   13   14 1
    24   14   15 1
    25   14   34 1
    26   14   35 1
    27   16   17 1
    28   17   18 2
    29   17   19 1
    30   19   24 ar
    31   19   20 ar
    32   20   21 ar
    33   20   36 1
    34   21   22 ar
    35   21   37 1
    36   22   23 ar
    37   22   25 1
    38   23   24 ar
    39   23   38 1
    40   24   39 1
    41   25   26 1
    42   25   40 1
    43   25   41 1
    44   26   42 1
@<TRIPOS>MOLECULE
ZINC03418933
   42    43     0     0     0
SMALL
USER_CHARGES

@<TRIPOS>ATOM
      1 C1         -1.2847   11.3847    9.9654 C.3       1 <0>        -0.0695
      2 O1         -1.7220   10.1239    9.4543 O.3       1 <0>        -0.1655
      3 C2         -2.7179    9.4977   10.1295 C.ar      1 <0>         0.1593
      4 C3         -3.2665   10.0816   11.2617 C.ar      1 <0>        -0.2326
      5 C4         -4.2806    9.4435   11.9474 C.ar      1 <0>        -0.0596
      6 C5         -4.7578    8.2175   11.5123 C.ar      1 <0>        -0.1773
      7 C6         -4.2282    7.6249   10.3870 C.ar      1 <0>        -0.0692
      8 C7         -3.1978    8.2574    9.6859 C.ar      1 <0>        -0.1711
      9 C8         -2.6231    7.6268    8.4836 C.2       1 <0>         0.3410
     10 O2         -1.7305    8.1824    7.8737 O.2       1 <0>        -0.2612
     11 N1         -3.0875    6.4343    8.0607 N.am      1 <0>        -0.3642
     12 C9         -2.5621    5.8579    6.9615 C.2       1 <0>         0.2859
     13 O3         -1.6718    6.4121    6.3531 O.2       1 <0>        -0.2570
     14 C10        -3.0813    4.5245    6.4887 C.3       1 <0>        -0.0283
     15 O4         -2.3596    4.1195    5.2956 O.3       1 <0>        -0.2324
     16 C11        -2.7052    2.9409    4.7423 C.2       1 <0>         0.3535
     17 O5         -3.5853    2.2699    5.2428 O.2       1 <0>        -0.3676
     18 C12        -2.0137    2.4645    3.5269 C.ar      1 <0>        -0.1109
     19 C13        -2.3694    1.2433    2.9508 C.ar      1 <0>        -0.0682
     20 C14        -1.7199    0.8047    1.8157 C.ar      1 <0>        -0.1256
     21 C15        -0.7181    1.5718    1.2479 C.ar      1 <0>        -0.0452
     22 C16        -0.3570    2.7804    1.8166 C.ar      1 <0>        -0.1241
     23 C17        -1.0018    3.2336    2.9487 C.ar      1 <0>        -0.0755
     24 C18        -0.0127    1.0858    0.0080 C.3       1 <0>         0.0341
     25 O6         -0.7038    1.5592   -1.1497 O.3       1 <0>        -0.3454
     26 H1         -2.1204   12.0845    9.9702 H         1 <0>         0.0673
     27 H2         -0.9132   11.2555   10.9819 H         1 <0>         0.0672
     28 H3         -0.4870   11.7758    9.3339 H         1 <0>         0.1191
     29 H4         -2.9000   11.0370   11.6071 H         1 <0>         0.1434
     30 H5         -4.7049    9.9028   12.8280 H         1 <0>         0.1347
     31 H6         -5.5515    7.7262   12.0556 H         1 <0>         0.1355
     32 H7         -4.6061    6.6712   10.0493 H         1 <0>         0.1254
     33 H8         -3.7998    5.9909    8.5474 H         1 <0>         0.2267
     34 H9         -4.1436    4.6088    6.2596 H         1 <0>         0.1091
     35 H10        -2.9363    3.7799    7.2713 H         1 <0>         0.1084
     36 H11        -3.1514    0.6438    3.3928 H         1 <0>         0.1544
     37 H12        -1.9943   -0.1395    1.3688 H         1 <0>         0.1397
     38 H13         0.4286    3.3723    1.3707 H         1 <0>         0.1408
     39 H14        -0.7221    4.1792    3.3891 H         1 <0>         0.1596
     40 H15         0.0021   -0.0041    0.0020 H         1 <0>         0.0661
     41 H16         1.0099    1.4631    0.0003 H         1 <0>         0.0674
     42 H17        -0.3044    1.2838   -1.9862 H         1 <0>         0.2120
@<TRIPOS>BOND
     1    1    2 1
     2    1   26 1
     3    1   27 1
     4    1   28 1
     5    2    3 1
     6    3    8 ar
     7    3    4 ar
     8    4    5 ar
     9    4   29 1
    10    5    6 ar
    11    5   30 1
    12    6    7 ar
    13    6   31 1
    14    7    8 ar
    15    7   32 1
    16    8    9 1
    17    9   10 2
    18    9   11 am
    19   11   12 am
    20   11   33 1
    21   12   13 2
    22   12   14 1
    23   14   15 1
    24   14   34 1
    25   14   35 1
    26   15   16 1
    27   16   17 2
    28   16   18 1
    29   18   23 ar
    30   18   19 ar
    31   19   20 ar
    32   19   36 1
    33   20   21 ar
    34   20   37 1
    35   21   22 ar
    36   21   24 1
    37   22   23 ar
    38   22   38 1
    39   23   39 1
    40   24   25 1
    41   24   40 1
    42   24   41 1
    43   25   42 1
@<TRIPOS>MOLECULE
ZINC03419250
   40    41     0     0     0
SMALL
USER_CHARGES

@<TRIPOS>ATOM
      1 C1          8.7173    0.4002   -2.4251 C.3       1 <0>        -0.3106
      2 S1          7.0861    0.4496   -1.6330 S.3       1 <0>         0.1307
      3 C2          7.0334    2.0342   -0.8643 C.ar      1 <0>        -0.2155
      4 C3          8.1161    2.8959   -0.9707 C.ar      1 <0>        -0.1330
      5 C4          8.0721    4.1383   -0.3671 C.ar      1 <0>        -0.1265
      6 C5          6.9510    4.5272    0.3433 C.ar      1 <0>        -0.1190
      7 C6          5.8658    3.6775    0.4502 C.ar      1 <0>        -0.1125
      8 C7          5.9029    2.4268   -0.1471 C.ar      1 <0>         0.0782
      9 N1          4.8060    1.5618   -0.0354 N.am      1 <0>        -0.3220
     10 C8          3.5540    2.0604   -0.0141 C.2       1 <0>         0.3001
     11 O1          3.3793    3.2607   -0.0096 O.2       1 <0>        -0.3301
     12 C9          2.3713    1.1267    0.0041 C.3       1 <0>        -0.0245
     13 O2          1.1434    1.9013    0.0254 O.3       1 <0>        -0.2345
     14 C10        -0.0141    1.2124    0.0435 C.2       1 <0>         0.3525
     15 O3          0.0019   -0.0022    0.0416 O.2       1 <0>        -0.3654
     16 C11        -1.3030    1.9340    0.0596 C.ar      1 <0>        -0.1099
     17 C12        -1.3250    3.3301    0.0677 C.ar      1 <0>        -0.0767
     18 C13        -2.5322    3.9976    0.0768 C.ar      1 <0>        -0.1246
     19 C14        -3.7193    3.2869    0.0897 C.ar      1 <0>        -0.0456
     20 C15        -3.7046    1.9033    0.0876 C.ar      1 <0>        -0.1250
     21 C16        -2.5047    1.2231    0.0727 C.ar      1 <0>        -0.0680
     22 C17        -5.0341    4.0231    0.1056 C.3       1 <0>         0.0341
     23 O4         -5.4345    4.2539    1.4578 O.3       1 <0>        -0.3456
     24 H1          8.7941    1.2109   -3.1497 H         1 <0>         0.1010
     25 H2          9.4926    0.5151   -1.6677 H         1 <0>         0.0985
     26 H3          8.8453   -0.5552   -2.9340 H         1 <0>         0.1204
     27 H4          8.9929    2.5957   -1.5253 H         1 <0>         0.1328
     28 H5          8.9154    4.8077   -0.4509 H         1 <0>         0.1314
     29 H6          6.9217    5.4994    0.8127 H         1 <0>         0.1362
     30 H7          4.9905    3.9863    1.0023 H         1 <0>         0.1697
     31 H8          4.9478    0.6042    0.0265 H         1 <0>         0.2407
     32 H9          2.4191    0.4970    0.8926 H         1 <0>         0.1100
     33 H10         2.3898    0.4994   -0.8872 H         1 <0>         0.1141
     34 H11        -0.3991    3.8861    0.0622 H         1 <0>         0.1580
     35 H12        -2.5507    5.0775    0.0782 H         1 <0>         0.1400
     36 H13        -4.6349    1.3546    0.0973 H         1 <0>         0.1399
     37 H14        -2.4946    0.1431    0.0707 H         1 <0>         0.1551
     38 H15        -4.9222    4.9778   -0.4082 H         1 <0>         0.0671
     39 H16        -5.7917    3.4247   -0.4006 H         1 <0>         0.0664
     40 H17        -6.2747    4.7247    1.5443 H         1 <0>         0.2120
@<TRIPOS>BOND
     1    1    2 1
     2    1   24 1
     3    1   25 1
     4    1   26 1
     5    2    3 1
     6    3    8 ar
     7    3    4 ar
     8    4    5 ar
     9    4   27 1
    10    5    6 ar
    11    5   28 1
    12    6    7 ar
    13    6   29 1
    14    7    8 ar
    15    7   30 1
    16    8    9 1
    17    9   10 am
    18    9   31 1
    19   10   11 2
    20   10   12 1
    21   12   13 1
    22   12   32 1
    23   12   33 1
    24   13   14 1
    25   14   15 2
    26   14   16 1
    27   16   21 ar
    28   16   17 ar
    29   17   18 ar
    30   17   34 1
    31   18   19 ar
    32   18   35 1
    33   19   20 ar
    34   19   22 1
    35   20   21 ar
    36   20   36 1
    37   21   37 1
    38   22   23 1
    39   22   38 1
    40   22   39 1
    41   23   40 1
@<TRIPOS>MOLECULE
ZINC03421125
   44    47     0     0     0
SMALL
USER_CHARGES

@<TRIPOS>ATOM
      1 C1          8.0726   -2.7853   -6.3813 C.ar      1 <0>        -0.1688
      2 C2          9.3293   -3.3757   -6.3772 C.ar      1 <0>        -0.0732
      3 C3          9.9363   -3.7260   -5.1914 C.ar      1 <0>        -0.1900
      4 C4          9.2859   -3.4870   -3.9831 C.ar      1 <0>         0.0935
      5 C5          8.0137   -2.8885   -3.9925 C.ar      1 <0>        -0.1022
      6 C6          7.4168   -2.5413   -5.2083 C.ar      1 <0>        -0.0642
      7 C7          7.3251   -2.6335   -2.7181 C.2       1 <0>        -0.0371
      8 C8          7.9517   -2.9842   -1.5567 C.2       1 <0>        -0.1864
      9 C9          9.2716   -3.6085   -1.6126 C.2       1 <0>         0.3301
     10 O1          9.8291   -3.9267   -0.5772 O.2       1 <0>        -0.3629
     11 N1          9.8824   -3.8317   -2.7892 N.am      1 <0>        -0.2788
     12 H1         10.7877   -4.2563   -2.7985 H         1 <0>         0.2551
     13 C10         5.9824   -2.0037   -2.6947 C.2       1 <0>         0.3457
     14 O2          5.3888   -1.8001   -3.7350 O.2       1 <0>        -0.3635
     15 N2          5.4209   -1.6573   -1.5195 N.am      1 <0>        -0.3839
     16 C11         4.1461   -0.9356   -1.5012 C.3       1 <0>        -0.0040
     17 C12         3.7331   -0.6666   -0.0528 C.3       1 <0>        -0.1353
     18 C13         2.4218    0.0759   -0.0340 C.ar      1 <0>        -0.0826
     19 C14         1.2315   -0.6265   -0.0000 C.ar      1 <0>        -0.1226
     20 C15         0.0270    0.0507    0.0159 C.ar      1 <0>        -0.1198
     21 C16         0.0092    1.4375   -0.0020 C.ar      1 <0>         0.0207
     22 C17         1.2058    2.1436   -0.0330 C.ar      1 <0>         0.0216
     23 C18         2.4112    1.4577   -0.0504 C.ar      1 <0>        -0.1169
     24 O3          1.2113    3.5047   -0.0426 O.3       1 <0>        -0.2045
     25 C19        -0.0148    4.1507   -0.4020 C.3       1 <0>        -0.0520
     26 C20        -1.1577    3.4759    0.3684 C.3       1 <0>        -0.0523
     27 O4         -1.1849    2.0905    0.0055 O.3       1 <0>        -0.2039
     28 H2          7.6101   -2.5164   -7.3195 H         1 <0>         0.1373
     29 H3          9.8358   -3.5618   -7.3128 H         1 <0>         0.1335
     30 H4         10.9138   -4.1851   -5.1986 H         1 <0>         0.1356
     31 H5          6.4396   -2.0817   -5.2198 H         1 <0>         0.1919
     32 H6          7.4737   -2.8057   -0.6049 H         1 <0>         0.1567
     33 H7          5.8608   -1.8859   -0.6857 H         1 <0>         0.2271
     34 H8          3.3809   -1.5373   -1.9915 H         1 <0>         0.1022
     35 H9          4.2572    0.0115   -2.0293 H         1 <0>         0.1005
     36 H10         4.4984   -0.0648    0.4375 H         1 <0>         0.0939
     37 H11         3.6220   -1.6136    0.4752 H         1 <0>         0.0938
     38 H12         1.2430   -1.7064    0.0138 H         1 <0>         0.1370
     39 H13        -0.9015   -0.5004    0.0420 H         1 <0>         0.1472
     40 H14         3.3424    2.0041   -0.0775 H         1 <0>         0.1464
     41 H15         0.0345    5.2066   -0.1362 H         1 <0>         0.1222
     42 H16        -0.1832    4.0491   -1.4742 H         1 <0>         0.0956
     43 H17        -0.9860    3.5731    1.4404 H         1 <0>         0.0950
     44 H18        -2.1060    3.9434    0.1035 H         1 <0>         0.1224
@<TRIPOS>BOND
     1    1    6 ar
     2    1    2 ar
     3    1   28 1
     4    2    3 ar
     5    2   29 1
     6    3    4 ar
     7    3   30 1
     8    4   11 1
     9    4    5 ar
    10    5    6 ar
    11    5    7 1
    12    6   31 1
    13    7    8 2
    14    7   13 1
    15    8    9 1
    16    8   32 1
    17    9   10 2
    18    9   11 am
    19   11   12 1
    20   13   14 2
    21   13   15 am
    22   15   16 1
    23   15   33 1
    24   16   17 1
    25   16   34 1
    26   16   35 1
    27   17   18 1
    28   17   36 1
    29   17   37 1
    30   18   23 ar
    31   18   19 ar
    32   19   20 ar
    33   19   38 1
    34   20   21 ar
    35   20   39 1
    36   21   27 1
    37   21   22 ar
    38   22   23 ar
    39   22   24 1
    40   23   40 1
    41   24   25 1
    42   25   26 1
    43   25   41 1
    44   25   42 1
    45   26   27 1
    46   26   43 1
    47   26   44 1
@<TRIPOS>MOLECULE
ZINC03421125
   44    47     0     0     0
SMALL
USER_CHARGES

@<TRIPOS>ATOM
      1 C1          8.0750   -2.7802   -6.3810 C.ar      1 <0>        -0.1535
      2 C2          9.3299   -3.3745   -6.3771 C.ar      1 <0>        -0.0989
      3 C3          9.9338   -3.7313   -5.1917 C.ar      1 <0>        -0.1254
      4 C4          9.2834   -3.4923   -3.9834 C.ar      1 <0>         0.0686
      5 C5          8.0131   -2.8898   -3.9926 C.ar      1 <0>        -0.1057
      6 C6          7.4162   -2.5426   -5.2084 C.ar      1 <0>        -0.0896
      7 C7          7.3238   -2.6362   -2.7183 C.ar      1 <0>        -0.0157
      8 C8          7.9480   -2.9921   -1.5571 C.ar      1 <0>        -0.2794
      9 C9          9.2666   -3.6190   -1.6132 C.ar      1 <0>         0.1833
     10 O1          9.8196   -3.9467   -0.5783 O.3       1 <0>        -0.1727
     11 N1          9.8775   -3.8421   -2.7898 N.ar      1 <0>        -0.2163
     12 H1          9.2364   -3.7130    0.1997 H         1 <0>         0.2579
     13 C10         5.9804   -2.0079   -2.6949 C.2       1 <0>         0.3442
     14 O2          5.3869   -1.8044   -3.7353 O.2       1 <0>        -0.3566
     15 N2          5.4182   -1.6627   -1.5197 N.am      1 <0>        -0.3877
     16 C11         4.1426   -0.9424   -1.5014 C.3       1 <0>        -0.0040
     17 C12         3.7289   -0.6746   -0.0530 C.3       1 <0>        -0.1348
     18 C13         2.4168    0.0665   -0.0343 C.ar      1 <0>        -0.0832
     19 C14         1.2272   -0.6371   -0.0010 C.ar      1 <0>        -0.1227
     20 C15         0.0220    0.0388    0.0149 C.ar      1 <0>        -0.1196
     21 C16         0.0027    1.4256   -0.0023 C.ar      1 <0>         0.0212
     22 C17         1.1986    2.1330   -0.0325 C.ar      1 <0>         0.0219
     23 C18         2.4047    1.4483   -0.0499 C.ar      1 <0>        -0.1169
     24 O3          1.2027    3.4941   -0.0414 O.3       1 <0>        -0.2045
     25 C19        -0.0240    4.1390   -0.4009 C.3       1 <0>        -0.0521
     26 C20        -1.1664    3.4625    0.3688 C.3       1 <0>        -0.0524
     27 O4         -1.1920    2.0773    0.0052 O.3       1 <0>        -0.2036
     28 H2          7.6144   -2.5073   -7.3190 H         1 <0>         0.1328
     29 H3          9.8369   -3.5596   -7.3127 H         1 <0>         0.1314
     30 H4         10.9094   -4.1944   -5.1991 H         1 <0>         0.1490
     31 H5          6.4385   -2.0841   -5.2199 H         1 <0>         0.1844
     32 H6          7.4714   -2.8107   -0.6052 H         1 <0>         0.1258
     33 H7          5.8581   -1.8913   -0.6859 H         1 <0>         0.2209
     34 H8          3.3782   -1.5446   -1.9923 H         1 <0>         0.1029
     35 H9          4.2529    0.0051   -2.0290 H         1 <0>         0.1014
     36 H10         4.4934   -0.0722    0.4378 H         1 <0>         0.0916
     37 H11         3.6186   -1.6220    0.4744 H         1 <0>         0.0913
     38 H12         1.2399   -1.7170    0.0122 H         1 <0>         0.1366
     39 H13        -0.9059   -0.5133    0.0404 H         1 <0>         0.1474
     40 H14         3.3354    1.9957   -0.0765 H         1 <0>         0.1462
     41 H15         0.0241    5.1948   -0.1345 H         1 <0>         0.1225
     42 H16        -0.1920    4.0377   -1.4732 H         1 <0>         0.0962
     43 H17        -0.9952    3.5594    1.4409 H         1 <0>         0.0948
     44 H18        -2.1151    3.9292    0.1039 H         1 <0>         0.1228
@<TRIPOS>BOND
     1    1    6 ar
     2    1    2 ar
     3    1   28 1
     4    2    3 ar
     5    2   29 1
     6    3    4 ar
     7    3   30 1
     8    4    5 ar
     9    4   11 ar
    10    5    6 ar
    11    5    7 ar
    12    6   31 1
    13    7   13 1
    14    7    8 ar
    15    8   32 1
    16    8    9 ar
    17    9   11 ar
    18    9   10 1
    19   10   12 1
    20   13   14 2
    21   13   15 am
    22   15   16 1
    23   15   33 1
    24   16   17 1
    25   16   34 1
    26   16   35 1
    27   17   18 1
    28   17   36 1
    29   17   37 1
    30   18   23 ar
    31   18   19 ar
    32   19   20 ar
    33   19   38 1
    34   20   21 ar
    35   20   39 1
    36   21   27 1
    37   21   22 ar
    38   22   23 ar
    39   22   24 1
    40   23   40 1
    41   24   25 1
    42   25   26 1
    43   25   41 1
    44   25   42 1
    45   26   27 1
    46   26   43 1
    47   26   44 1
@<TRIPOS>MOLECULE
ZINC03421791
   39    41     0     0     0
SMALL
USER_CHARGES

@<TRIPOS>ATOM
      1 C1          0.1363   11.8821   -2.2860 C.3       1 <0>        -0.3103
      2 S1          0.5106   10.2803   -1.5212 S.3       1 <0>         0.1307
      3 C2         -1.0026    9.8127   -0.7491 C.ar      1 <0>        -0.2144
      4 C3         -2.1129   10.6409   -0.8349 C.ar      1 <0>        -0.1327
      5 C4         -3.2987   10.2715   -0.2287 C.ar      1 <0>        -0.1250
      6 C5         -3.3835    9.0775    0.4639 C.ar      1 <0>        -0.1190
      7 C6         -2.2840    8.2437    0.5502 C.ar      1 <0>        -0.1124
      8 C7         -1.0884    8.6084   -0.0498 C.ar      1 <0>         0.0760
      9 N1          0.0287    7.7673    0.0410 N.am      1 <0>        -0.3195
     10 C8         -0.1335    6.4293    0.0427 C.2       1 <0>         0.3013
     11 O1         -1.2493    5.9537    0.0476 O.2       1 <0>        -0.3345
     12 C9          1.0714    5.5242    0.0384 C.3       1 <0>        -0.0226
     13 O2          0.6431    4.1609    0.0412 O.3       1 <0>        -0.2466
     14 C10         1.6066    3.2160    0.0380 C.2       1 <0>         0.3813
     15 O3          2.7786    3.5423    0.0330 O.2       1 <0>        -0.3460
     16 C11         1.2419    1.8000    0.0406 C.2       1 <0>        -0.1584
     17 C12         2.1183    0.7058    0.0376 C.ar      1 <0>        -0.0733
     18 C13         3.5060    0.5188    0.0322 C.ar      1 <0>        -0.0822
     19 C14         4.0114   -0.7448    0.0306 C.ar      1 <0>        -0.1269
     20 C15         3.1792   -1.8639    0.0347 C.ar      1 <0>        -0.1228
     21 C16         1.8256   -1.7503    0.0391 C.ar      1 <0>        -0.0786
     22 C17         1.2358   -0.4704    0.0414 C.ar      1 <0>        -0.0813
     23 N2         -0.0008   -0.0042    0.0461 N.2       1 <0>        -0.0703
     24 N3         -0.0178    1.2802    0.0457 N.pl3     1 <0>        -0.0333
     25 H1         -0.8526    1.8308    0.0488 H         1 <0>         0.3038
     26 H2          1.0238   12.2578   -2.7953 H         1 <0>         0.1211
     27 H3         -0.6722   11.7605   -3.0069 H         1 <0>         0.1014
     28 H4         -0.1676   12.5905   -1.5154 H         1 <0>         0.0989
     29 H5         -2.0504   11.5737   -1.3756 H         1 <0>         0.1336
     30 H6         -4.1618   10.9171   -0.2964 H         1 <0>         0.1323
     31 H7         -4.3127    8.7935    0.9354 H         1 <0>         0.1367
     32 H8         -2.3553    7.3102    1.0884 H         1 <0>         0.1685
     33 H9          0.9188    8.1480    0.1026 H         1 <0>         0.2416
     34 H10         1.6742    5.7175    0.9258 H         1 <0>         0.1098
     35 H11         1.6669    5.7161   -0.8541 H         1 <0>         0.1147
     36 H12         4.1699    1.3706    0.0290 H         1 <0>         0.1518
     37 H13         5.0824   -0.8842    0.0265 H         1 <0>         0.1323
     38 H14         3.6233   -2.8484    0.0340 H         1 <0>         0.1327
     39 H15         1.2058   -2.6347    0.0415 H         1 <0>         0.1414
@<TRIPOS>BOND
     1    1    2 1
     2    1   26 1
     3    1   27 1
     4    1   28 1
     5    2    3 1
     6    3    8 ar
     7    3    4 ar
     8    4    5 ar
     9    4   29 1
    10    5    6 ar
    11    5   30 1
    12    6    7 ar
    13    6   31 1
    14    7    8 ar
    15    7   32 1
    16    8    9 1
    17    9   10 am
    18    9   33 1
    19   10   11 2
    20   10   12 1
    21   12   13 1
    22   12   34 1
    23   12   35 1
    24   13   14 1
    25   14   15 2
    26   14   16 1
    27   16   24 1
    28   16   17 2
    29   17   22 ar
    30   17   18 ar
    31   18   19 ar
    32   18   36 1
    33   19   20 ar
    34   19   37 1
    35   20   21 ar
    36   20   38 1
    37   21   22 ar
    38   21   39 1
    39   22   23 2
    40   23   24 1
    41   24   25 1
@<TRIPOS>MOLECULE
ZINC03421791
   39    41     0     0     0
SMALL
USER_CHARGES

@<TRIPOS>ATOM
      1 C1          0.1361   11.8822   -2.2852 C.3       1 <0>        -0.3107
      2 S1          0.5105   10.2804   -1.5205 S.3       1 <0>         0.1305
      3 C2         -1.0027    9.8127   -0.7483 C.ar      1 <0>        -0.2161
      4 C3         -2.1130   10.6410   -0.8340 C.ar      1 <0>        -0.1332
      5 C4         -3.2987   10.2715   -0.2277 C.ar      1 <0>        -0.1274
      6 C5         -3.3835    9.0775    0.4648 C.ar      1 <0>        -0.1189
      7 C6         -2.2840    8.2437    0.5510 C.ar      1 <0>        -0.1126
      8 C7         -1.0884    8.6084   -0.0491 C.ar      1 <0>         0.0795
      9 N1          0.0287    7.7673    0.0416 N.am      1 <0>        -0.3233
     10 C8         -0.1335    6.4293    0.0432 C.2       1 <0>         0.2994
     11 O1         -1.2493    5.9537    0.0482 O.2       1 <0>        -0.3231
     12 C9          1.0714    5.5242    0.0388 C.3       1 <0>        -0.0268
     13 O2          0.6431    4.1609    0.0415 O.3       1 <0>        -0.2145
     14 C10         1.6066    3.2160    0.0382 C.2       1 <0>         0.4019
     15 O3          2.7786    3.5423    0.0331 O.2       1 <0>        -0.3613
     16 C11         1.2419    1.8000    0.0407 C.2       1 <0>        -0.1332
     17 C12         2.1183    0.7058    0.0383 C.ar      1 <0>        -0.0908
     18 C13         3.5060    0.5188    0.0333 C.ar      1 <0>        -0.0573
     19 C14         4.0114   -0.7448    0.0325 C.ar      1 <0>        -0.1511
     20 C15         3.1792   -1.8639    0.0370 C.ar      1 <0>        -0.0950
     21 C16         1.8256   -1.7503    0.0410 C.ar      1 <0>        -0.1344
     22 C17         1.2358   -0.4704    0.0426 C.ar      1 <0>        -0.0719
     23 N2         -0.0008   -0.0042    0.0462 N.pl3     1 <0>        -0.0811
     24 N3         -0.0178    1.2802    0.0459 N.2       1 <0>        -0.0186
     25 H1         -0.8194   -0.5785    0.0489 H         1 <0>         0.2904
     26 H2          1.0236   12.2580   -2.7945 H         1 <0>         0.1199
     27 H3         -0.6724   11.7607   -3.0060 H         1 <0>         0.1009
     28 H4         -0.1677   12.5906   -1.5145 H         1 <0>         0.0982
     29 H5         -2.0505   11.5738   -1.3746 H         1 <0>         0.1323
     30 H6         -4.1618   10.9171   -0.2953 H         1 <0>         0.1309
     31 H7         -4.3126    8.7934    0.9364 H         1 <0>         0.1359
     32 H8         -2.3552    7.3101    1.0891 H         1 <0>         0.1705
     33 H9          0.9188    8.1480    0.1031 H         1 <0>         0.2400
     34 H10         1.6743    5.7174    0.9261 H         1 <0>         0.1061
     35 H11         1.6668    5.7162   -0.8538 H         1 <0>         0.1109
     36 H12         4.1699    1.3706    0.0298 H         1 <0>         0.1569
     37 H13         5.0824   -0.8842    0.0287 H         1 <0>         0.1339
     38 H14         3.6233   -2.8484    0.0369 H         1 <0>         0.1326
     39 H15         1.2058   -2.6347    0.0438 H         1 <0>         0.1305
@<TRIPOS>BOND
     1    1    2 1
     2    1   26 1
     3    1   27 1
     4    1   28 1
     5    2    3 1
     6    3    8 ar
     7    3    4 ar
     8    4    5 ar
     9    4   29 1
    10    5    6 ar
    11    5   30 1
    12    6    7 ar
    13    6   31 1
    14    7    8 ar
    15    7   32 1
    16    8    9 1
    17    9   10 am
    18    9   33 1
    19   10   11 2
    20   10   12 1
    21   12   13 1
    22   12   34 1
    23   12   35 1
    24   13   14 1
    25   14   15 2
    26   14   16 1
    27   16   17 1
    28   16   24 2
    29   17   18 ar
    30   17   22 ar
    31   18   19 ar
    32   18   36 1
    33   19   20 ar
    34   19   37 1
    35   20   21 ar
    36   20   38 1
    37   21   22 ar
    38   21   39 1
    39   22   23 1
    40   23   25 1
    41   23   24 1
@<TRIPOS>MOLECULE
ZINC03422313
   42    45     0     0     0
SMALL
USER_CHARGES

@<TRIPOS>ATOM
      1 C1         -1.2944   -0.7722    0.0108 C.3       1 <0>        -0.1785
      2 C2          0.0021   -0.0041    0.0020 C.ar      1 <0>        -0.0585
      3 C3         -0.0167    1.3791    0.0096 C.ar      1 <0>        -0.1243
      4 C4          1.1672    2.0880    0.0021 C.ar      1 <0>        -0.1012
      5 C5          2.3841    1.4073   -0.0132 C.ar      1 <0>        -0.0639
      6 C6          2.3966    0.0129   -0.0208 C.ar      1 <0>        -0.1098
      7 C7          1.2062   -0.6850   -0.0132 C.ar      1 <0>        -0.1222
      8 C8          3.6583    2.1622   -0.0209 C.2       1 <0>         0.1056
      9 C9          3.6196    3.4873   -0.0189 C.2       1 <0>        -0.2719
     10 C10         4.8517    4.3518   -0.0131 C.3       1 <0>         0.1561
     11 H1          4.7517    5.1263   -0.7736 H         1 <0>         0.1238
     12 N1          6.0240    3.5354   -0.3034 N.pl3     1 <0>        -0.2017
     13 C11         6.0186    2.1766   -0.3052 C.2       1 <0>         0.1093
     14 N2          7.2271    1.7849   -0.5922 N.2       1 <0>        -0.1833
     15 N3          7.9946    2.8040   -0.7779 N.2       1 <0>         0.0024
     16 N4          7.3306    3.9034   -0.6200 N.2       1 <0>        -0.0333
     17 N5          4.8673    1.4534   -0.0359 N.pl3     1 <0>        -0.2669
     18 C12         5.0118    4.9962    1.3397 C.ar      1 <0>        -0.0765
     19 C13         5.1532    4.2081    2.4667 C.ar      1 <0>        -0.1270
     20 C14         5.3061    4.7945    3.7093 C.ar      1 <0>        -0.1194
     21 C15         5.3065    6.1750    3.8285 C.ar      1 <0>         0.0552
     22 C16         5.1585    6.9682    2.6949 C.ar      1 <0>         0.0722
     23 C17         5.0114    6.3741    1.4517 C.ar      1 <0>        -0.1887
     24 O1          5.1577    8.3235    2.8068 O.3       1 <0>        -0.1977
     25 C18         5.0008    9.0740    1.6009 C.3       1 <0>        -0.0663
     26 O2          5.4507    6.7533    5.0509 O.3       1 <0>        -0.2744
     27 H2         -1.6172   -0.9519   -1.0146 H         1 <0>         0.0920
     28 H3         -1.1483   -1.7259    0.5181 H         1 <0>         0.0860
     29 H4         -2.0555   -0.1945    0.5354 H         1 <0>         0.0856
     30 H5         -0.9598    1.9053    0.0170 H         1 <0>         0.1378
     31 H6          1.1513    3.1679    0.0078 H         1 <0>         0.1375
     32 H7          3.3360   -0.5198   -0.0331 H         1 <0>         0.1285
     33 H8          1.2145   -1.7649   -0.0187 H         1 <0>         0.1381
     34 H9          2.6541    3.9714   -0.0176 H         1 <0>         0.1627
     35 H10         4.8970    0.4990    0.1351 H         1 <0>         0.2709
     36 H11         5.1483    3.1319    2.3757 H         1 <0>         0.1380
     37 H12         5.4208    4.1765    4.5876 H         1 <0>         0.1482
     38 H13         4.8967    6.9875    0.5702 H         1 <0>         0.1409
     39 H14         4.0492    8.8182    1.1350 H         1 <0>         0.0630
     40 H15         5.0178   10.1393    1.8311 H         1 <0>         0.1120
     41 H16         5.8157    8.8371    0.9169 H         1 <0>         0.0738
     42 H17         4.6157    6.9112    5.5123 H         1 <0>         0.2257
@<TRIPOS>BOND
     1    1    2 1
     2    1   27 1
     3    1   28 1
     4    1   29 1
     5    2    7 ar
     6    2    3 ar
     7    3    4 ar
     8    3   30 1
     9    4    5 ar
    10    4   31 1
    11    5    6 ar
    12    5    8 1
    13    6    7 ar
    14    6   32 1
    15    7   33 1
    16    8   17 1
    17    8    9 2
    18    9   10 1
    19    9   34 1
    20   10   11 1
    21   10   12 1
    22   10   18 1
    23   12   16 1
    24   12   13 1
    25   13   14 2
    26   13   17 1
    27   14   15 1
    28   15   16 2
    29   17   35 1
    30   18   23 ar
    31   18   19 ar
    32   19   20 ar
    33   19   36 1
    34   20   21 ar
    35   20   37 1
    36   21   22 ar
    37   21   26 1
    38   22   23 ar
    39   22   24 1
    40   23   38 1
    41   24   25 1
    42   25   39 1
    43   25   40 1
    44   25   41 1
    45   26   42 1
@<TRIPOS>MOLECULE
ZINC03422316
   42    45     0     0     0
SMALL
USER_CHARGES

@<TRIPOS>ATOM
      1 C1         -0.0184    1.5028    0.0103 C.3       1 <0>        -0.1785
      2 C2          0.0021   -0.0041    0.0020 C.ar      1 <0>        -0.0585
      3 C3         -0.0058   -0.6865   -1.2013 C.ar      1 <0>        -0.1242
      4 C4          0.0177   -2.0662   -1.2153 C.ar      1 <0>        -0.1012
      5 C5          0.0387   -2.7726   -0.0132 C.ar      1 <0>        -0.0638
      6 C6          0.0412   -2.0791    1.1966 C.ar      1 <0>        -0.1098
      7 C7          0.0229   -0.6993    1.1978 C.ar      1 <0>        -0.1221
      8 C8          0.0578   -4.2535   -0.0213 C.2       1 <0>         0.1055
      9 C9          0.0550   -4.8893   -1.1846 C.2       1 <0>        -0.2717
     10 C10         0.0660   -6.3893   -1.3085 C.3       1 <0>         0.1561
     11 H1          0.8289   -6.6883   -2.0274 H         1 <0>         0.1240
     12 N1          0.3617   -6.9864   -0.0119 N.pl3     1 <0>        -0.2019
     13 C11         0.3573   -6.2958    1.1583 C.2       1 <0>         0.1094
     14 N2          0.6542   -7.1381    2.1062 N.2       1 <0>        -0.1836
     15 N3          0.8509   -8.3133    1.6139 N.2       1 <0>         0.0025
     16 N4          0.6914   -8.2968    0.3299 N.2       1 <0>        -0.0334
     17 N5          0.0840   -4.9388    1.2010 N.pl3     1 <0>        -0.2666
     18 C12        -1.2835   -6.8633   -1.7830 C.ar      1 <0>        -0.0766
     19 C13        -2.4119   -6.5973   -1.0298 C.ar      1 <0>        -0.1269
     20 C14        -3.6523   -7.0291   -1.4612 C.ar      1 <0>        -0.1194
     21 C15        -3.7665   -7.7307   -2.6506 C.ar      1 <0>         0.0552
     22 C16        -2.6307   -7.9988   -3.4085 C.ar      1 <0>         0.0723
     23 C17        -1.3912   -7.5581   -2.9732 C.ar      1 <0>        -0.1889
     24 O1         -2.7376   -8.6870   -4.5766 O.3       1 <0>        -0.1977
     25 C18        -1.5297   -8.9257   -5.3018 C.3       1 <0>        -0.0664
     26 O2         -4.9860   -8.1559   -3.0766 O.3       1 <0>        -0.2743
     27 H2          1.0042    1.8801    0.0026 H         1 <0>         0.0920
     28 H3         -0.5455    1.8639   -0.8728 H         1 <0>         0.0856
     29 H4         -0.5286    1.8543    0.9071 H         1 <0>         0.0860
     30 H5         -0.0266   -0.1384   -2.1316 H         1 <0>         0.1378
     31 H6          0.0157   -2.5979   -2.1554 H         1 <0>         0.1375
     32 H7          0.0571   -2.6209    2.1308 H         1 <0>         0.1285
     33 H8          0.0244   -0.1611    2.1341 H         1 <0>         0.1381
     34 H9          0.0447   -4.3006   -2.0900 H         1 <0>         0.1628
     35 H10        -0.0852   -4.4835    2.0406 H         1 <0>         0.2708
     36 H11        -2.3243   -6.0506   -0.1025 H         1 <0>         0.1380
     37 H12        -4.5323   -6.8194   -0.8713 H         1 <0>         0.1482
     38 H13        -0.5087   -7.7611   -3.5618 H         1 <0>         0.1409
     39 H14        -1.0692   -7.9733   -5.5642 H         1 <0>         0.0629
     40 H15        -0.8427   -9.5034   -4.6834 H         1 <0>         0.0739
     41 H16        -1.7559   -9.4826   -6.2111 H         1 <0>         0.1120
     42 H17        -5.4508   -7.5194   -3.6370 H         1 <0>         0.2256
@<TRIPOS>BOND
     1    1    2 1
     2    1   27 1
     3    1   28 1
     4    1   29 1
     5    2    7 ar
     6    2    3 ar
     7    3    4 ar
     8    3   30 1
     9    4    5 ar
    10    4   31 1
    11    5    6 ar
    12    5    8 1
    13    6    7 ar
    14    6   32 1
    15    7   33 1
    16    8   17 1
    17    8    9 2
    18    9   10 1
    19    9   34 1
    20   10   11 1
    21   10   12 1
    22   10   18 1
    23   12   16 1
    24   12   13 1
    25   13   14 2
    26   13   17 1
    27   14   15 1
    28   15   16 2
    29   17   35 1
    30   18   23 ar
    31   18   19 ar
    32   19   20 ar
    33   19   36 1
    34   20   21 ar
    35   20   37 1
    36   21   22 ar
    37   21   26 1
    38   22   23 ar
    39   22   24 1
    40   23   38 1
    41   24   25 1
    42   25   39 1
    43   25   40 1
    44   25   41 1
    45   26   42 1
@<TRIPOS>MOLECULE
ZINC03424585
   39    40     0     0     0
SMALL
USER_CHARGES

@<TRIPOS>ATOM
      1 C1         -8.1052   -2.1142    0.5285 C.3       1 <0>        -0.1807
      2 C2         -6.9652   -1.1636    0.2675 C.ar      1 <0>        -0.0349
      3 C3         -5.7218   -1.6592   -0.0838 C.ar      1 <0>        -0.1551
      4 C4         -4.6742   -0.7949   -0.3240 C.ar      1 <0>        -0.0641
      5 C5         -4.8704    0.5831   -0.2120 C.ar      1 <0>        -0.1285
      6 C6         -6.1260    1.0761    0.1480 C.ar      1 <0>         0.0001
      7 C7         -7.1665    0.2004    0.3807 C.ar      1 <0>        -0.1502
      8 C8         -6.3456    2.5614    0.2774 C.3       1 <0>        -0.1865
      9 C9         -3.7528    1.5149   -0.4673 C.2       1 <0>         0.3562
     10 O1         -3.9520    2.7131   -0.4803 O.2       1 <0>        -0.3682
     11 O2         -2.5129    1.0358   -0.6857 O.3       1 <0>        -0.2373
     12 C10        -1.4635    2.0092   -0.9296 C.3       1 <0>        -0.0182
     13 C11        -0.1559    1.2935   -1.1509 C.2       1 <0>         0.2887
     14 O3         -0.1127    0.0822   -1.1073 O.2       1 <0>        -0.3185
     15 N1          0.9644    1.9991   -1.4027 N.am      1 <0>        -0.2626
     16 C12         2.1664    1.3403   -1.6120 C.2       1 <0>        -0.0862
     17 C13         3.4140    1.8871   -1.8879 C.2       1 <0>        -0.2735
     18 C14         4.5064    0.9590   -2.0577 C.2       1 <0>        -0.1280
     19 C15         4.2224   -0.3511   -1.9457 C.2       1 <0>        -0.3783
     20 S1          2.4754   -0.3634   -1.6003 S.3       1 <0>         0.5070
     21 C16         3.6116    3.3359   -1.9971 C.2       1 <0>         0.3845
     22 O4          2.6698    4.0917   -1.8450 O.2       1 <0>        -0.4148
     23 N2          4.8361    3.8306   -2.2659 N.am      1 <0>        -0.4220
     24 H1         -8.1168   -2.3865    1.5838 H         1 <0>         0.0915
     25 H2         -9.0472   -1.6321    0.2672 H         1 <0>         0.0851
     26 H3         -7.9760   -3.0113   -0.0769 H         1 <0>         0.0856
     27 H4         -5.5714   -2.7252   -0.1697 H         1 <0>         0.1370
     28 H5         -3.7042   -1.1830   -0.5978 H         1 <0>         0.1548
     29 H6         -8.1393    0.5805    0.6557 H         1 <0>         0.1388
     30 H7         -6.5501    2.9854   -0.7057 H         1 <0>         0.0997
     31 H8         -7.1933    2.7472    0.9368 H         1 <0>         0.0727
     32 H9         -5.4520    3.0257    0.6946 H         1 <0>         0.1205
     33 H10        -1.3743    2.6709   -0.0680 H         1 <0>         0.1166
     34 H11        -1.7108    2.5960   -1.8143 H         1 <0>         0.1171
     35 H12         0.9298    2.9679   -1.4376 H         1 <0>         0.2773
     36 H13         5.5084    1.3016   -2.2702 H         1 <0>         0.1379
     37 H14         4.8924   -1.1926   -2.0418 H         1 <0>         0.1881
     38 H15         5.5867    3.2282   -2.3872 H         1 <0>         0.2183
     39 H16         4.9669    4.7890   -2.3382 H         1 <0>         0.2298
@<TRIPOS>BOND
     1    1    2 1
     2    1   24 1
     3    1   25 1
     4    1   26 1
     5    2    7 ar
     6    2    3 ar
     7    3    4 ar
     8    3   27 1
     9    4    5 ar
    10    4   28 1
    11    5    6 ar
    12    5    9 1
    13    6    7 ar
    14    6    8 1
    15    7   29 1
    16    8   30 1
    17    8   31 1
    18    8   32 1
    19    9   10 2
    20    9   11 1
    21   11   12 1
    22   12   13 1
    23   12   33 1
    24   12   34 1
    25   13   14 2
    26   13   15 am
    27   15   16 1
    28   15   35 1
    29   16   20 1
    30   16   17 2
    31   17   18 1
    32   17   21 1
    33   18   19 2
    34   18   36 1
    35   19   20 1
    36   19   37 1
    37   21   22 2
    38   21   23 am
    39   23   38 1
    40   23   39 1
@<TRIPOS>MOLECULE
ZINC03428816
   42    44     0     0     0
SMALL
USER_CHARGES

@<TRIPOS>ATOM
      1 C1          1.3266    8.1104    0.1559 C.3       1 <0>        -0.1736
      2 C2          1.3103    8.6050    1.5793 C.2       1 <0>        -0.0918
      3 C3          1.3154    9.9204    1.8405 C.2       1 <0>        -0.2619
      4 S1          1.2908    9.9916    3.6219 S.3       1 <0>         0.3758
      5 C4          1.2744    8.2525    3.9675 C.ar      1 <0>        -0.0825
      6 C5          1.2945    7.6625    2.6844 C.ar      1 <0>        -0.2535
      7 C6          1.2790    6.2408    2.6672 C.ar      1 <0>         0.2472
      8 N1          1.2585    5.5819    3.8147 N.ar      1 <0>        -0.3002
      9 C7          1.2466    6.2011    4.9813 C.ar      1 <0>         0.0787
     10 N2          1.2542    7.5177    5.0617 N.ar      1 <0>        -0.2213
     11 N3          1.2908    5.5548    1.4661 N.pl3     1 <0>        -0.3567
     12 C8          1.1399    4.0977    1.4532 C.3       1 <0>         0.0012
     13 C9          1.1874    3.5928    0.0096 C.3       1 <0>        -0.1515
     14 C10         1.0322    2.0939   -0.0037 C.ar      1 <0>        -0.0189
     15 C11        -0.2269    1.5302   -0.0922 C.ar      1 <0>        -0.1470
     16 C12        -0.3693    0.1553   -0.1048 C.ar      1 <0>        -0.0226
     17 C13         0.7474   -0.6559   -0.0290 C.ar      1 <0>        -0.7624
     18 C14         2.0065   -0.0922    0.0590 C.ar      1 <0>        -0.0225
     19 C15         2.1490    1.2827    0.0708 C.ar      1 <0>        -0.1466
     20 S2          0.5658   -2.4085   -0.0439 S.o2      1 <0>         2.7616
     21 O1          1.7219   -2.9420    0.5872 O.2       1 <0>        -0.9153
     22 O2         -0.7496   -2.6845    0.4172 O.2       1 <0>        -0.9154
     23 N4          0.6241   -2.8933   -1.6262 N.pl3     1 <0>        -0.9313
     24 C16         1.3362   11.0658    0.8614 C.3       1 <0>        -0.1282
     25 H1          2.3462    7.8473   -0.1257 H         1 <0>         0.0866
     26 H2          0.6875    7.2316    0.0693 H         1 <0>         0.0799
     27 H3          0.9578    8.8944   -0.5054 H         1 <0>         0.0901
     28 H4          1.2300    5.6167    5.8894 H         1 <0>         0.2012
     29 H5          1.3991    6.0387    0.6324 H         1 <0>         0.2493
     30 H6          0.1837    3.8275    1.9013 H         1 <0>         0.0990
     31 H7          1.9499    3.6434    2.0238 H         1 <0>         0.1026
     32 H8          2.1436    3.8631   -0.4385 H         1 <0>         0.0962
     33 H9          0.3774    4.0471   -0.5610 H         1 <0>         0.0953
     34 H10        -1.0991    2.1640   -0.1560 H         1 <0>         0.1401
     35 H11        -1.3530   -0.2851   -0.1736 H         1 <0>         0.1551
     36 H12         2.8789   -0.7261    0.1190 H         1 <0>         0.1552
     37 H13         3.1327    1.7231    0.1399 H         1 <0>         0.1405
     38 H14         0.7410   -2.2368   -2.3307 H         1 <0>         0.2294
     39 H15         0.5414   -3.8339   -1.8487 H         1 <0>         0.2444
     40 H16         1.3349   12.0098    1.4064 H         1 <0>         0.0908
     41 H17         2.2343   11.0022    0.2470 H         1 <0>         0.0915
     42 H18         0.4546   11.0139    0.2226 H         1 <0>         0.0915
@<TRIPOS>BOND
     1    1    2 1
     2    1   25 1
     3    1   26 1
     4    1   27 1
     5    2    6 1
     6    2    3 2
     7    3    4 1
     8    3   24 1
     9    4    5 1
    10    5   10 ar
    11    5    6 ar
    12    6    7 ar
    13    7    8 ar
    14    7   11 1
    15    8    9 ar
    16    9   10 ar
    17    9   28 1
    18   11   12 1
    19   11   29 1
    20   12   13 1
    21   12   30 1
    22   12   31 1
    23   13   14 1
    24   13   32 1
    25   13   33 1
    26   14   19 ar
    27   14   15 ar
    28   15   16 ar
    29   15   34 1
    30   16   17 ar
    31   16   35 1
    32   17   18 ar
    33   17   20 1
    34   18   19 ar
    35   18   36 1
    36   19   37 1
    37   20   21 2
    38   20   22 2
    39   20   23 1
    40   23   38 1
    41   23   39 1
    42   24   40 1
    43   24   41 1
    44   24   42 1
@<TRIPOS>MOLECULE
ZINC03430767
   41    43     0     0     0
SMALL
USER_CHARGES

@<TRIPOS>ATOM
      1 C1         -6.3566   12.5833   -0.3037 C.3       1 <0>        -0.2146
      2 C2         -7.0966   11.2457   -0.3682 C.3       1 <0>        -0.0041
      3 O1         -6.1524   10.1753   -0.3008 O.3       1 <0>        -0.2656
      4 C3         -6.6453    8.9196   -0.3457 C.2       1 <0>         0.4040
      5 O2         -7.8453    8.7401   -0.4396 O.2       1 <0>        -0.3678
      6 C4         -5.7660    7.8108   -0.2835 C.2       1 <0>        -0.4059
      7 C5         -6.0669    6.4551   -0.3137 C.2       1 <0>         0.0056
      8 C6         -5.0192    5.5783   -0.2418 C.2       1 <0>        -0.2584
      9 C7         -3.7389    6.0809   -0.1344 C.2       1 <0>        -0.1636
     10 S1         -3.9876    7.7966   -0.1451 S.3       1 <0>         0.5715
     11 N1         -2.5431    5.3833   -0.0455 N.am      1 <0>        -0.2615
     12 C8         -1.3774    6.0532    0.0483 C.2       1 <0>         0.3422
     13 O3         -1.3791    7.2639    0.1515 O.2       1 <0>        -0.3344
     14 C9         -0.0933    5.3131    0.0256 C.2       1 <0>        -0.0389
     15 C10        -0.0743    3.9473    0.0335 C.2       1 <0>        -0.1761
     16 C11         1.2072    3.2465    0.0101 C.2       1 <0>         0.3298
     17 O4          1.2250    2.0284    0.0168 O.2       1 <0>        -0.3553
     18 N2          2.3672    3.9254   -0.0195 N.am      1 <0>        -0.2773
     19 H1          3.2301    3.4203   -0.0357 H         1 <0>         0.2582
     20 C12         2.3913    5.3037   -0.0280 C.ar      1 <0>         0.0961
     21 C13         1.1892    6.0331   -0.0065 C.ar      1 <0>        -0.1037
     22 C14         1.2227    7.4304   -0.0162 C.ar      1 <0>        -0.0662
     23 C15         2.4238    8.0812   -0.0399 C.ar      1 <0>        -0.1644
     24 C16         3.6129    7.3658   -0.0670 C.ar      1 <0>        -0.0700
     25 C17         3.6036    5.9880   -0.0584 C.ar      1 <0>        -0.1874
     26 C18        -7.4891    5.9699   -0.4273 C.3       1 <0>        -0.1746
     27 H2         -7.0768   13.3999   -0.3551 H         1 <0>         0.0876
     28 H3         -5.8016   12.6468    0.6323 H         1 <0>         0.0861
     29 H4         -5.6641   12.6563   -1.1423 H         1 <0>         0.0858
     30 H5         -7.6515   11.1823   -1.3042 H         1 <0>         0.0862
     31 H6         -7.7891   11.1728    0.4704 H         1 <0>         0.0862
     32 H7         -5.1914    4.5124   -0.2659 H         1 <0>         0.1471
     33 H8         -2.5459    4.4133   -0.0508 H         1 <0>         0.2497
     34 H9         -0.9991    3.3901    0.0572 H         1 <0>         0.1564
     35 H10         0.3016    7.9941   -0.0001 H         1 <0>         0.1884
     36 H11         2.4480    9.1610   -0.0426 H         1 <0>         0.1400
     37 H12         4.5545    7.8942   -0.0906 H         1 <0>         0.1364
     38 H13         4.5342    5.4402   -0.0747 H         1 <0>         0.1382
     39 H14        -7.7519    5.8580   -1.4792 H         1 <0>         0.0958
     40 H15        -7.5861    5.0078    0.0758 H         1 <0>         0.0762
     41 H16        -8.1581    6.6930    0.0394 H         1 <0>         0.1223
@<TRIPOS>BOND
     1    1    2 1
     2    1   27 1
     3    1   28 1
     4    1   29 1
     5    2    3 1
     6    2   30 1
     7    2   31 1
     8    3    4 1
     9    4    5 2
    10    4    6 1
    11    6   10 1
    12    6    7 2
    13    7    8 1
    14    7   26 1
    15    8    9 2
    16    8   32 1
    17    9   10 1
    18    9   11 1
    19   11   12 am
    20   11   33 1
    21   12   13 2
    22   12   14 1
    23   14   21 1
    24   14   15 2
    25   15   16 1
    26   15   34 1
    27   16   17 2
    28   16   18 am
    29   18   19 1
    30   18   20 1
    31   20   25 ar
    32   20   21 ar
    33   21   22 ar
    34   22   23 ar
    35   22   35 1
    36   23   24 ar
    37   23   36 1
    38   24   25 ar
    39   24   37 1
    40   25   38 1
    41   26   39 1
    42   26   40 1
    43   26   41 1
@<TRIPOS>MOLECULE
ZINC03430828
   43    45     0     0     0
SMALL
USER_CHARGES

@<TRIPOS>ATOM
      1 C1         -2.2035   10.8639    4.6561 C.3       1 <0>        -0.1762
      2 C2         -2.0640   11.8205    3.5000 C.ar      1 <0>        -0.1122
      3 C3         -2.7396   13.0252    3.5140 C.ar      1 <0>        -0.1087
      4 C4         -2.6118   13.9036    2.4539 C.ar      1 <0>        -0.1451
      5 C5         -1.8076   13.5795    1.3764 C.ar      1 <0>        -0.1179
      6 C6         -1.1249   12.3793    1.3588 C.ar      1 <0>        -0.1329
      7 C7         -1.2556   11.4920    2.4196 C.ar      1 <0>         0.0726
      8 N1         -0.5703   10.2732    2.4023 N.pl3     1 <0>        -0.2533
      9 C8         -0.1969    9.7079    1.1985 C.ar      1 <0>         0.2746
     10 N2          0.5558    8.6100    1.1827 N.ar      1 <0>        -0.3389
     11 C9          0.9132    8.0683    0.0318 C.ar      1 <0>         0.1597
     12 N3          0.5297    8.6166   -1.1080 N.ar      1 <0>        -0.3393
     13 C10        -0.2276    9.7112   -1.1004 C.ar      1 <0>         0.2748
     14 N4         -0.5889   10.2588    0.0550 N.ar      1 <0>        -0.3652
     15 N5         -0.6322   10.2797   -2.2910 N.pl3     1 <0>        -0.3637
     16 C11         1.7654    6.8255    0.0186 C.3       1 <0>         0.0653
     17 O1          0.9102    5.6521    0.0283 O.3       1 <0>        -0.2720
     18 C12         1.5206    4.4493    0.0184 C.2       1 <0>         0.3840
     19 O2          2.7350    4.3838    0.0020 O.2       1 <0>        -0.3528
     20 C13         0.7210    3.2219    0.0272 C.2       1 <0>        -0.1399
     21 C14         1.2075    1.9306    0.0184 C.2       1 <0>        -0.1075
     22 C15         0.1003    1.0773    0.0313 C.2       1 <0>        -0.2267
     23 C16        -1.0157    1.8455    0.0423 C.2       1 <0>        -0.1034
     24 N6         -0.6538    3.1456    0.0452 N.pl3     1 <0>        -0.0890
     25 C17        -1.5719    4.2872    0.0594 C.3       1 <0>        -0.0762
     26 H1         -1.4355   11.0779    5.3994 H         1 <0>         0.0844
     27 H2         -3.1887   10.9808    5.1076 H         1 <0>         0.0879
     28 H3         -2.0872    9.8412    4.2975 H         1 <0>         0.0783
     29 H4         -3.3681   13.2814    4.3541 H         1 <0>         0.1319
     30 H5         -3.1408   14.8450    2.4675 H         1 <0>         0.1286
     31 H6         -1.7099   14.2678    0.5499 H         1 <0>         0.1295
     32 H7         -0.4933   12.1289    0.5193 H         1 <0>         0.1695
     33 H8         -0.3571    9.8248    3.2355 H         1 <0>         0.2613
     34 H9         -1.1807   11.0797   -2.2847 H         1 <0>         0.2423
     35 H10        -0.3680    9.8794   -3.1341 H         1 <0>         0.2450
     36 H11         2.4064    6.8152    0.9000 H         1 <0>         0.1191
     37 H12         2.3827    6.8177   -0.8798 H         1 <0>         0.1197
     38 H13         2.2463    1.6354    0.0039 H         1 <0>         0.1668
     39 H14         0.1292   -0.0023    0.0283 H         1 <0>         0.1536
     40 H15        -2.0309    1.4769    0.0502 H         1 <0>         0.1670
     41 H16        -1.8131    4.5723   -0.9646 H         1 <0>         0.0928
     42 H17        -2.4863    4.0115    0.5848 H         1 <0>         0.0897
     43 H18        -1.0994    5.1271    0.5687 H         1 <0>         0.1225
@<TRIPOS>BOND
     1    1    2 1
     2    1   26 1
     3    1   27 1
     4    1   28 1
     5    2    7 ar
     6    2    3 ar
     7    3    4 ar
     8    3   29 1
     9    4    5 ar
    10    4   30 1
    11    5    6 ar
    12    5   31 1
    13    6    7 ar
    14    6   32 1
    15    7    8 1
    16    8    9 1
    17    8   33 1
    18    9   14 ar
    19    9   10 ar
    20   10   11 ar
    21   11   12 ar
    22   11   16 1
    23   12   13 ar
    24   13   14 ar
    25   13   15 1
    26   15   34 1
    27   15   35 1
    28   16   17 1
    29   16   36 1
    30   16   37 1
    31   17   18 1
    32   18   19 2
    33   18   20 1
    34   20   24 1
    35   20   21 2
    36   21   22 1
    37   21   38 1
    38   22   23 2
    39   22   39 1
    40   23   24 1
    41   23   40 1
    42   24   25 1
    43   25   41 1
    44   25   42 1
    45   25   43 1
@<TRIPOS>MOLECULE
ZINC03437006
   41    42     0     0     0
SMALL
USER_CHARGES

@<TRIPOS>ATOM
      1 C1          0.9738   12.4508    4.9716 C.3       1 <0>        -0.1461
      2 C2          0.5629   11.0755    4.5127 C.2       1 <0>        -0.0742
      3 C3         -0.0362   10.1352    5.2713 C.2       1 <0>        -0.2075
      4 C4         -0.2479    9.0066    4.4549 C.2       1 <0>        -0.1817
      5 C5          0.2375    9.2972    3.2308 C.2       1 <0>        -0.1142
      6 N1          0.7335   10.5669    3.2593 N.pl3     1 <0>        -0.1077
      7 C6          1.3477   11.2689    2.1296 C.3       1 <0>        -0.0716
      8 C7          0.2275    8.3793    2.0356 C.3       1 <0>         0.0669
      9 N2         -0.9550    8.6569    1.2165 N.pl3     1 <0>        -0.8836
     10 S1         -1.0444    8.0765   -0.3319 S.o2      1 <0>         2.7605
     11 O1          0.1825    8.4148   -0.9639 O.2       1 <0>        -0.9226
     12 O2         -2.3045    8.4849   -0.8465 O.2       1 <0>        -0.9141
     13 C8         -1.0891    6.3182   -0.2274 C.ar      1 <0>        -0.7793
     14 C9         -2.3031    5.6634   -0.1300 C.ar      1 <0>        -0.0080
     15 C10        -2.3415    4.2853   -0.0480 C.ar      1 <0>        -0.1519
     16 C11        -1.1591    3.5571   -0.0634 C.ar      1 <0>         0.1152
     17 C12         0.0588    4.2180   -0.1556 C.ar      1 <0>        -0.1875
     18 C13         0.0900    5.5959   -0.2435 C.ar      1 <0>        -0.0150
     19 N3         -1.1946    2.1607    0.0195 N.am      1 <0>        -0.3334
     20 C14        -2.1981    1.4762   -0.5643 C.2       1 <0>         0.3019
     21 O3         -3.1169    2.0730   -1.0847 O.2       1 <0>        -0.3461
     22 C15        -2.1818   -0.0307   -0.5651 C.3       1 <0>        -0.2380
     23 H1          0.1526   13.1487    4.8084 H         1 <0>         0.0871
     24 H2          1.2200   12.4213    6.0330 H         1 <0>         0.0941
     25 H3          1.8460   12.7773    4.4052 H         1 <0>         0.0755
     26 H4         -0.3072   10.2309    6.3124 H         1 <0>         0.1486
     27 H5         -0.7115    8.0785    4.7549 H         1 <0>         0.1471
     28 H6          0.5794   11.8088    1.5762 H         1 <0>         0.0900
     29 H7          2.0912   11.9742    2.5009 H         1 <0>         0.0925
     30 H8          1.8295   10.5461    1.4712 H         1 <0>         0.1009
     31 H9          0.2004    7.3433    2.3734 H         1 <0>         0.0912
     32 H10         1.1271    8.5448    1.4429 H         1 <0>         0.0972
     33 H11        -1.6855    9.1806    1.5811 H         1 <0>         0.2523
     34 H12        -3.2223    6.2303   -0.1177 H         1 <0>         0.1552
     35 H13        -3.2901    3.7745    0.0277 H         1 <0>         0.1722
     36 H14         0.9802    3.6547   -0.1633 H         1 <0>         0.1350
     37 H15         1.0366    6.1102   -0.3200 H         1 <0>         0.1486
     38 H16        -0.4969    1.6854    0.4971 H         1 <0>         0.2353
     39 H17        -1.6685   -0.3880   -1.4578 H         1 <0>         0.1107
     40 H18        -1.6597   -0.3888    0.3221 H         1 <0>         0.0841
     41 H19        -3.2055   -0.4051   -0.5602 H         1 <0>         0.1202
@<TRIPOS>BOND
     1    1    2 1
     2    1   23 1
     3    1   24 1
     4    1   25 1
     5    2    6 1
     6    2    3 2
     7    3    4 1
     8    3   26 1
     9    4    5 2
    10    4   27 1
    11    5    6 1
    12    5    8 1
    13    6    7 1
    14    7   28 1
    15    7   29 1
    16    7   30 1
    17    8    9 1
    18    8   31 1
    19    8   32 1
    20    9   10 1
    21    9   33 1
    22   10   11 2
    23   10   12 2
    24   10   13 1
    25   13   18 ar
    26   13   14 ar
    27   14   15 ar
    28   14   34 1
    29   15   16 ar
    30   15   35 1
    31   16   17 ar
    32   16   19 1
    33   17   18 ar
    34   17   36 1
    35   18   37 1
    36   19   20 am
    37   19   38 1
    38   20   21 2
    39   20   22 1
    40   22   39 1
    41   22   40 1
    42   22   41 1
@<TRIPOS>MOLECULE
ZINC03439903
   42    44     0     0     0
SMALL
USER_CHARGES

@<TRIPOS>ATOM
      1 C1          7.3710    3.8083   -4.6316 C.3       1 <0>        -0.1761
      2 C2          7.5331    4.7533   -3.4689 C.ar      1 <0>        -0.1127
      3 C3          8.5475    5.6907   -3.4761 C.ar      1 <0>        -0.1089
      4 C4          8.6964    6.5587   -2.4102 C.ar      1 <0>        -0.1460
      5 C5          7.8307    6.4915   -1.3336 C.ar      1 <0>        -0.1182
      6 C6          6.8118    5.5596   -1.3222 C.ar      1 <0>        -0.1328
      7 C7          6.6624    4.6829   -2.3893 C.ar      1 <0>         0.0738
      8 N1          5.6341    3.7354   -2.3791 N.pl3     1 <0>        -0.2533
      9 C8          5.1039    3.3045   -1.1785 C.ar      1 <0>         0.2758
     10 N2          4.0518    2.4888   -1.1690 N.ar      1 <0>        -0.3363
     11 C9          3.5404    2.0807   -0.0211 C.ar      1 <0>         0.1628
     12 N3          4.0772    2.4715    1.1217 N.ar      1 <0>        -0.3378
     13 C10         5.1325    3.2827    1.1203 C.ar      1 <0>         0.2761
     14 N4          5.6462    3.6995   -0.0320 N.ar      1 <0>        -0.3650
     15 N5          5.6920    3.6906    2.3140 N.pl3     1 <0>        -0.3639
     16 C11         2.3456    1.1623   -0.0149 C.3       1 <0>         0.0658
     17 O1          1.1278    1.9526    0.0078 O.3       1 <0>        -0.2445
     18 C12        -0.0402    1.2777    0.0160 C.2       1 <0>         0.3994
     19 O2         -0.0399    0.0615    0.0045 O.2       1 <0>        -0.3495
     20 C13        -1.3088    2.0095    0.0327 C.2       1 <0>        -0.1006
     21 C14        -2.5569    1.4532    0.0370 C.2       1 <0>        -0.1153
     22 C15        -3.4722    2.5165    0.0540 C.2       1 <0>        -0.2396
     23 C16        -2.7530    3.6609    0.0593 C.2       1 <0>        -0.0121
     24 O3         -1.4501    3.3513    0.0523 O.3       1 <0>        -0.0294
     25 C17        -3.3233    5.0557    0.0769 C.3       1 <0>        -0.1398
     26 H1          6.7068    4.2540   -5.3721 H         1 <0>         0.0837
     27 H2          8.3443    3.6186   -5.0840 H         1 <0>         0.0876
     28 H3          6.9446    2.8690   -4.2796 H         1 <0>         0.0788
     29 H4          9.2250    5.7460   -4.3154 H         1 <0>         0.1313
     30 H5          9.4902    7.2910   -2.4184 H         1 <0>         0.1280
     31 H6          7.9495    7.1712   -0.5027 H         1 <0>         0.1291
     32 H7          6.1339    5.5101   -0.4829 H         1 <0>         0.1705
     33 H8          5.2930    3.3807   -3.2150 H         1 <0>         0.2611
     34 H9          5.3163    3.3861    3.1548 H         1 <0>         0.2446
     35 H10         6.4611    4.2817    2.3122 H         1 <0>         0.2419
     36 H11         2.3818    0.5251    0.8687 H         1 <0>         0.1180
     37 H12         2.3596    0.5419   -0.9110 H         1 <0>         0.1177
     38 H13        -2.7930    0.3994    0.0285 H         1 <0>         0.1745
     39 H14        -4.5492    2.4357    0.0618 H         1 <0>         0.1622
     40 H15        -3.4530    5.3823    1.1087 H         1 <0>         0.0995
     41 H16        -2.6410    5.7337   -0.4358 H         1 <0>         0.0984
     42 H17        -4.2885    5.0599   -0.4296 H         1 <0>         0.1010
@<TRIPOS>BOND
     1    1    2 1
     2    1   26 1
     3    1   27 1
     4    1   28 1
     5    2    7 ar
     6    2    3 ar
     7    3    4 ar
     8    3   29 1
     9    4    5 ar
    10    4   30 1
    11    5    6 ar
    12    5   31 1
    13    6    7 ar
    14    6   32 1
    15    7    8 1
    16    8    9 1
    17    8   33 1
    18    9   14 ar
    19    9   10 ar
    20   10   11 ar
    21   11   12 ar
    22   11   16 1
    23   12   13 ar
    24   13   14 ar
    25   13   15 1
    26   15   34 1
    27   15   35 1
    28   16   17 1
    29   16   36 1
    30   16   37 1
    31   17   18 1
    32   18   19 2
    33   18   20 1
    34   20   24 1
    35   20   21 2
    36   21   22 1
    37   21   38 1
    38   22   23 2
    39   22   39 1
    40   23   24 1
    41   23   25 1
    42   25   40 1
    43   25   41 1
    44   25   42 1
@<TRIPOS>MOLECULE
ZINC03440590
   46    48     0     0     0
SMALL
USER_CHARGES

@<TRIPOS>ATOM
      1 C1          1.0803   10.4114    2.4633 C.3       1 <0>        -0.1655
      2 C2          1.1022    9.6722    3.7764 C.ar      1 <0>        -0.0650
      3 C3          1.1034   10.3634    4.9497 C.ar      1 <0>        -0.1091
      4 C4          1.1244    9.6998    6.1736 C.ar      1 <0>        -0.1460
      5 C5          1.1439    8.3387    6.2301 C.ar      1 <0>        -0.1002
      6 C6          1.1429    7.5947    5.0406 C.ar      1 <0>        -0.1305
      7 C7          1.1221    8.2675    3.7945 C.ar      1 <0>         0.0832
      8 N1          1.1211    7.5639    2.6562 N.ar      1 <0>        -0.2491
      9 C8          1.1391    6.2471    2.6672 C.ar      1 <0>         0.1915
     10 C9          1.1544    5.5233    3.8685 C.ar      1 <0>        -0.2398
     11 C10         1.1627    6.1848    5.0592 C.ar      1 <0>         0.0101
     12 C11         1.1851    5.4293    6.3629 C.3       1 <0>        -0.1810
     13 N2          1.1372    5.5598    1.4626 N.pl3     1 <0>        -0.3634
     14 C12         1.1571    4.0950    1.4550 C.3       1 <0>         0.0053
     15 C13         1.1505    3.5924    0.0099 C.3       1 <0>        -0.1473
     16 C14         1.1709    2.0855    0.0021 C.ar      1 <0>        -0.0216
     17 C15        -0.0167    1.3781    0.0096 C.ar      1 <0>        -0.1478
     18 C16         0.0021   -0.0041    0.0020 C.ar      1 <0>        -0.0231
     19 C17         1.2084   -0.6789   -0.0132 C.ar      1 <0>        -0.7631
     20 C18         2.3961    0.0285   -0.0212 C.ar      1 <0>        -0.0231
     21 C19         2.3773    1.4107   -0.0145 C.ar      1 <0>        -0.1478
     22 S1          1.2323   -2.4407   -0.0217 S.o2      1 <0>         2.7619
     23 O1          2.4885   -2.8324    0.5148 O.2       1 <0>        -0.9159
     24 O2         -0.0018   -2.8663    0.5395 O.2       1 <0>        -0.9159
     25 N3          1.2232   -2.9228   -1.6059 N.pl3     1 <0>        -0.9309
     26 H1          0.0475   10.5752    2.1558 H         1 <0>         0.0851
     27 H2          1.5818   11.3722    2.5788 H         1 <0>         0.0718
     28 H3          1.5958    9.8213    1.7055 H         1 <0>         0.1010
     29 H4          1.0881   11.4431    4.9306 H         1 <0>         0.1305
     30 H5          1.1248   10.2714    7.0900 H         1 <0>         0.1272
     31 H6          1.1605    7.8351    7.1854 H         1 <0>         0.1299
     32 H7          1.1642    4.4436    3.8495 H         1 <0>         0.1369
     33 H8          0.1630    5.2328    6.6866 H         1 <0>         0.0940
     34 H9          1.7109    4.4843    6.2263 H         1 <0>         0.0861
     35 H10         1.6976    6.0242    7.1189 H         1 <0>         0.0899
     36 H11         1.1228    6.0490    0.6251 H         1 <0>         0.2393
     37 H12         0.2770    3.7170    1.9752 H         1 <0>         0.0861
     38 H13         2.0567    3.7412    1.9586 H         1 <0>         0.0861
     39 H14         2.0306    3.9704   -0.5103 H         1 <0>         0.1014
     40 H15         0.2509    3.9462   -0.4937 H         1 <0>         0.1014
     41 H16        -0.9592    1.9054    0.0170 H         1 <0>         0.1411
     42 H17        -0.9258   -0.5567    0.0083 H         1 <0>         0.1552
     43 H18         3.3386   -0.4987   -0.0324 H         1 <0>         0.1553
     44 H19         3.3052    1.9634   -0.0205 H         1 <0>         0.1411
     45 H20         1.2072   -2.2605   -2.3144 H         1 <0>         0.2299
     46 H21         1.2339   -3.8676   -1.8254 H         1 <0>         0.2446
@<TRIPOS>BOND
     1    1    2 1
     2    1   26 1
     3    1   27 1
     4    1   28 1
     5    2    7 ar
     6    2    3 ar
     7    3    4 ar
     8    3   29 1
     9    4    5 ar
    10    4   30 1
    11    5    6 ar
    12    5   31 1
    13    6   11 ar
    14    6    7 ar
    15    7    8 ar
    16    8    9 ar
    17    9   10 ar
    18    9   13 1
    19   10   11 ar
    20   10   32 1
    21   11   12 1
    22   12   33 1
    23   12   34 1
    24   12   35 1
    25   13   14 1
    26   13   36 1
    27   14   15 1
    28   14   37 1
    29   14   38 1
    30   15   16 1
    31   15   39 1
    32   15   40 1
    33   16   21 ar
    34   16   17 ar
    35   17   18 ar
    36   17   41 1
    37   18   19 ar
    38   18   42 1
    39   19   20 ar
    40   19   22 1
    41   20   21 ar
    42   20   43 1
    43   21   44 1
    44   22   23 2
    45   22   24 2
    46   22   25 1
    47   25   45 1
    48   25   46 1
@<TRIPOS>MOLECULE
ZINC03443309
   39    40     0     0     0
SMALL
USER_CHARGES

@<TRIPOS>ATOM
      1 C1         -8.1868   -2.0828    0.0312 C.3       1 <0>        -0.1832
      2 C2         -7.0043   -1.1486    0.0296 C.ar      1 <0>        -0.0404
      3 C3         -5.7198   -1.6635    0.0207 C.ar      1 <0>        -0.1431
      4 C4         -4.6331   -0.8143    0.0138 C.ar      1 <0>        -0.0752
      5 C5         -4.8312    0.5680    0.0280 C.ar      1 <0>        -0.1192
      6 C6         -6.1297    1.0807    0.0370 C.ar      1 <0>        -0.0593
      7 C7         -7.2078    0.2198    0.0375 C.ar      1 <0>        -0.0934
      8 C8         -8.6102    0.7712    0.0471 C.3       1 <0>        -0.1754
      9 C9         -3.6720    1.4838    0.0275 C.2       1 <0>         0.3544
     10 O1         -3.8474    2.6857    0.0349 O.2       1 <0>        -0.3645
     11 O2         -2.4203    0.9858    0.0189 O.3       1 <0>        -0.2375
     12 C10        -1.3296    1.9443    0.0189 C.3       1 <0>        -0.0180
     13 C11        -0.0144    1.2086    0.0087 C.2       1 <0>         0.2887
     14 O3          0.0021   -0.0041    0.0020 O.2       1 <0>        -0.3188
     15 N1          1.1435    1.8983    0.0013 N.am      1 <0>        -0.2625
     16 C12         2.3536    1.2214   -0.0139 C.2       1 <0>        -0.0861
     17 C13         3.6387    1.7505   -0.0289 C.2       1 <0>        -0.2736
     18 C14         4.7298    0.8055   -0.0384 C.2       1 <0>        -0.1280
     19 C15         4.4105   -0.5012   -0.0429 C.2       1 <0>        -0.3784
     20 S1          2.6299   -0.4879   -0.0263 S.3       1 <0>         0.5069
     21 C16         3.8746    3.1977   -0.0310 C.2       1 <0>         0.3845
     22 O4          2.9323    3.9679   -0.0194 O.2       1 <0>        -0.4145
     23 N2          5.1349    3.6750   -0.0458 N.am      1 <0>        -0.4220
     24 H1         -8.4774   -2.3029   -0.9961 H         1 <0>         0.0917
     25 H2         -7.9176   -3.0089    0.5390 H         1 <0>         0.0849
     26 H3         -9.0209   -1.6122    0.5517 H         1 <0>         0.0887
     27 H4         -5.5680   -2.7328    0.0146 H         1 <0>         0.1376
     28 H5         -3.6312   -1.2173    0.0020 H         1 <0>         0.1552
     29 H6         -6.2899    2.1487    0.0432 H         1 <0>         0.1548
     30 H7         -8.9533    0.9097   -0.9782 H         1 <0>         0.0886
     31 H8         -9.2716    0.0732    0.5603 H         1 <0>         0.0858
     32 H9         -8.6202    1.7296    0.5662 H         1 <0>         0.0851
     33 H10        -1.3916    2.5653    0.9126 H         1 <0>         0.1173
     34 H11        -1.4000    2.5749   -0.8673 H         1 <0>         0.1174
     35 H12         1.1304    2.8682    0.0067 H         1 <0>         0.2774
     36 H13         5.7587    1.1336   -0.0461 H         1 <0>         0.1379
     37 H14         5.0742   -1.3532   -0.0537 H         1 <0>         0.1881
     38 H15         5.8859    3.0612   -0.0551 H         1 <0>         0.2183
     39 H16         5.2910    4.6324   -0.0472 H         1 <0>         0.2298
@<TRIPOS>BOND
     1    1    2 1
     2    1   24 1
     3    1   25 1
     4    1   26 1
     5    2    7 ar
     6    2    3 ar
     7    3    4 ar
     8    3   27 1
     9    4    5 ar
    10    4   28 1
    11    5    6 ar
    12    5    9 1
    13    6    7 ar
    14    6   29 1
    15    7    8 1
    16    8   30 1
    17    8   31 1
    18    8   32 1
    19    9   10 2
    20    9   11 1
    21   11   12 1
    22   12   13 1
    23   12   33 1
    24   12   34 1
    25   13   14 2
    26   13   15 am
    27   15   16 1
    28   15   35 1
    29   16   20 1
    30   16   17 2
    31   17   18 1
    32   17   21 1
    33   18   19 2
    34   18   36 1
    35   19   20 1
    36   19   37 1
    37   21   22 2
    38   21   23 am
    39   23   38 1
    40   23   39 1
@<TRIPOS>MOLECULE
ZINC03443406
   39    40     0     0     0
SMALL
USER_CHARGES

@<TRIPOS>ATOM
      1 C1          2.0551   -0.0829   -1.4341 C.3       1 <0>        -0.2389
      2 C2          0.7025    0.5352   -1.1901 C.2       1 <0>         0.3014
      3 O1         -0.1582    0.4666   -2.0419 O.2       1 <0>        -0.3566
      4 N1          0.4492    1.1642   -0.0253 N.am      1 <0>        -0.3286
      5 C3         -0.7751    1.8170    0.1663 C.ar      1 <0>         0.0485
      6 C4         -0.8293    2.9855    0.9148 C.ar      1 <0>        -0.1441
      7 C5         -2.0350    3.6320    1.0988 C.ar      1 <0>        -0.1072
      8 C6         -3.1957    3.1074    0.5455 C.ar      1 <0>         0.0396
      9 C7         -3.1425    1.9358   -0.1981 C.ar      1 <0>        -0.1423
     10 C8         -1.9358    1.2927   -0.3874 C.ar      1 <0>        -0.1110
     11 N2         -4.4201    3.7603    0.7372 N.am      1 <0>        -0.3264
     12 C9         -4.4655    5.1064    0.7869 C.2       1 <0>         0.2967
     13 O2         -3.4379    5.7496    0.7499 O.2       1 <0>        -0.2999
     14 C10        -5.7931    5.8123    0.8884 C.3       1 <0>        -0.0461
     15 O3         -5.5799    7.2248    0.9255 O.3       1 <0>        -0.1332
     16 C11        -6.6831    8.0131    1.0169 C.ar      1 <0>         0.1782
     17 C12        -7.9449    7.4389    1.0641 C.ar      1 <0>        -0.2844
     18 C13        -9.0660    8.2436    1.1615 C.ar      1 <0>         0.1814
     19 C14        -8.9284    9.6213    1.2018 C.ar      1 <0>        -0.2153
     20 C15        -7.6715   10.1938    1.1500 C.ar      1 <0>        -0.0074
     21 C16        -6.5491    9.3932    1.0575 C.ar      1 <0>        -0.1594
     22 N3         -5.2040   10.0082    1.0011 N.pl3     1 <0>         0.5532
     23 O4         -5.0864   11.2200    1.0367 O.2       1 <0>        -0.3719
     24 O5         -4.2147    9.3025    0.9192 O.3       1 <0>        -0.3102
     25 F1        -10.2954    7.6858    1.2127 F         1 <0>        -0.0890
     26 H1          2.0502   -1.1163   -1.0873 H         1 <0>         0.1048
     27 H2          2.2786   -0.0586   -2.5007 H         1 <0>         0.1194
     28 H3          2.8147    0.4791   -0.8908 H         1 <0>         0.0851
     29 H4          1.1133    1.1613    0.6818 H         1 <0>         0.2322
     30 H5          0.0727    3.3911    1.3488 H         1 <0>         0.1361
     31 H6         -2.0764    4.5434    1.6769 H         1 <0>         0.1689
     32 H7         -4.0451    1.5280   -0.6287 H         1 <0>         0.1323
     33 H8         -1.8942    0.3819   -0.9663 H         1 <0>         0.1682
     34 H9         -5.2353    3.2436    0.8341 H         1 <0>         0.2285
     35 H10        -6.4059    5.5599    0.0231 H         1 <0>         0.1002
     36 H11        -6.3031    5.4978    1.7990 H         1 <0>         0.0965
     37 H12        -8.0518    6.3647    1.0285 H         1 <0>         0.1596
     38 H13        -9.8044   10.2489    1.2733 H         1 <0>         0.1631
     39 H14        -7.5666   11.2682    1.1815 H         1 <0>         0.1780
@<TRIPOS>BOND
     1    1    2 1
     2    1   26 1
     3    1   27 1
     4    1   28 1
     5    2    3 2
     6    2    4 am
     7    4    5 1
     8    4   29 1
     9    5   10 ar
    10    5    6 ar
    11    6    7 ar
    12    6   30 1
    13    7    8 ar
    14    7   31 1
    15    8    9 ar
    16    8   11 1
    17    9   10 ar
    18    9   32 1
    19   10   33 1
    20   11   12 am
    21   11   34 1
    22   12   13 2
    23   12   14 1
    24   14   15 1
    25   14   35 1
    26   14   36 1
    27   15   16 1
    28   16   21 ar
    29   16   17 ar
    30   17   18 ar
    31   17   37 1
    32   18   19 ar
    33   18   25 1
    34   19   20 ar
    35   19   38 1
    36   20   21 ar
    37   20   39 1
    38   21   22 1
    39   22   23 2
    40   22   24 1
@<TRIPOS>MOLECULE
ZINC03447011
   43    44     0     0     0
SMALL
USER_CHARGES

@<TRIPOS>ATOM
      1 C1          4.6643   -9.1756   -3.6696 C.3       1 <0>        -0.1719
      2 C2          4.4211   -7.9792   -2.7861 C.ar      1 <0>        -0.1109
      3 C3          3.1292   -7.5446   -2.5527 C.ar      1 <0>        -0.0854
      4 C4          2.9037   -6.4481   -1.7437 C.ar      1 <0>        -0.2304
      5 C5          3.9748   -5.7827   -1.1646 C.ar      1 <0>         0.0923
      6 C6          5.2700   -6.2174   -1.4045 C.ar      1 <0>        -0.1469
      7 C7          5.4900   -7.3177   -2.2106 C.ar      1 <0>        -0.0368
      8 C8          6.8966   -7.7937   -2.4675 C.3       1 <0>        -0.1776
      9 O1          3.7555   -4.7036   -0.3682 O.3       1 <0>        -0.1764
     10 C9          2.4086   -4.2380   -0.2629 C.3       1 <0>         0.0097
     11 H1          1.9014   -4.3742   -1.2180 H         1 <0>         0.1062
     12 C10         1.6775   -5.0329    0.8208 C.3       1 <0>        -0.2420
     13 C11         2.4096   -2.7756    0.1014 C.2       1 <0>         0.3018
     14 O2          3.4603   -2.1899    0.2555 O.2       1 <0>        -0.3138
     15 N1          1.2430   -2.1188    0.2557 N.am      1 <0>        -0.3297
     16 C12         1.2426   -0.7451    0.4953 C.ar      1 <0>         0.0846
     17 C13         2.2433   -0.1766    1.2771 C.ar      1 <0>        -0.1386
     18 C14         2.2462    1.1793    1.5151 C.ar      1 <0>        -0.0476
     19 C15         1.2425    1.9849    0.9705 C.ar      1 <0>        -0.1474
     20 C16         0.2391    1.4107    0.1853 C.ar      1 <0>        -0.0883
     21 C17         0.2419    0.0540   -0.0485 C.ar      1 <0>        -0.1727
     22 C18         1.2421    3.4390    1.2240 C.2       1 <0>         0.3510
     23 O3          2.1157    3.9371    1.9074 O.2       1 <0>        -0.3681
     24 N2          0.2734    4.2145    0.6981 N.am      1 <0>        -0.4300
     25 H2          4.7825   -8.8468   -4.7021 H         1 <0>         0.0846
     26 H3          5.5699   -9.6884   -3.3456 H         1 <0>         0.0842
     27 H4          3.8163   -9.8569   -3.6001 H         1 <0>         0.0783
     28 H5          2.2959   -8.0629   -3.0037 H         1 <0>         0.1301
     29 H6          1.8946   -6.1091   -1.5618 H         1 <0>         0.1293
     30 H7          6.1056   -5.6985   -0.9584 H         1 <0>         0.1495
     31 H8          7.2949   -7.2912   -3.3489 H         1 <0>         0.0900
     32 H9          7.5213   -7.5634   -1.6045 H         1 <0>         0.0847
     33 H10         6.8908   -8.8708   -2.6348 H         1 <0>         0.0865
     34 H11         0.6501   -4.6778    0.9012 H         1 <0>         0.0763
     35 H12         1.6767   -6.0906    0.5574 H         1 <0>         0.0994
     36 H13         2.1847   -4.8967    1.7759 H         1 <0>         0.1052
     37 H14         0.4035   -2.6016    0.2002 H         1 <0>         0.2327
     38 H15         3.0189   -0.7997    1.6973 H         1 <0>         0.1722
     39 H16         3.0207    1.6194    2.1257 H         1 <0>         0.1634
     40 H17        -0.5376    2.0306   -0.2376 H         1 <0>         0.1258
     41 H18        -0.5335   -0.3904   -0.6549 H         1 <0>         0.1312
     42 H19        -0.4235    3.8170    0.1529 H         1 <0>         0.2143
     43 H20         0.2732    5.1701    0.8647 H         1 <0>         0.2311
@<TRIPOS>BOND
     1    1    2 1
     2    1   25 1
     3    1   26 1
     4    1   27 1
     5    2    7 ar
     6    2    3 ar
     7    3    4 ar
     8    3   28 1
     9    4    5 ar
    10    4   29 1
    11    5    6 ar
    12    5    9 1
    13    6    7 ar
    14    6   30 1
    15    7    8 1
    16    8   31 1
    17    8   32 1
    18    8   33 1
    19    9   10 1
    20   10   11 1
    21   10   12 1
    22   10   13 1
    23   12   34 1
    24   12   35 1
    25   12   36 1
    26   13   14 2
    27   13   15 am
    28   15   16 1
    29   15   37 1
    30   16   21 ar
    31   16   17 ar
    32   17   18 ar
    33   17   38 1
    34   18   19 ar
    35   18   39 1
    36   19   20 ar
    37   19   22 1
    38   20   21 ar
    39   20   40 1
    40   21   41 1
    41   22   23 2
    42   22   24 am
    43   24   42 1
    44   24   43 1
@<TRIPOS>MOLECULE
ZINC03447015
   43    44     0     0     0
SMALL
USER_CHARGES

@<TRIPOS>ATOM
      1 C1          4.0845    5.1360   -0.9613 C.3       1 <0>        -0.1720
      2 C2          2.9620    4.1631   -0.7072 C.ar      1 <0>        -0.1106
      3 C3          1.6926    4.6325   -0.4235 C.ar      1 <0>        -0.0872
      4 C4          0.6622    3.7429   -0.1898 C.ar      1 <0>        -0.1517
      5 C5          0.9016    2.3771   -0.2403 C.ar      1 <0>         0.0918
      6 C6          2.1770    1.9088   -0.5199 C.ar      1 <0>        -0.2252
      7 C7          3.2032    2.8028   -0.7577 C.ar      1 <0>        -0.0357
      8 C8          4.5879    2.2947   -1.0666 C.3       1 <0>        -0.1785
      9 O1         -0.1105    1.4997   -0.0107 O.3       1 <0>        -0.1766
     10 C9          0.2311    0.1130    0.0362 C.3       1 <0>         0.0096
     11 H1          1.2184   -0.0030    0.4834 H         1 <0>         0.1023
     12 C10         0.2440   -0.4575   -1.3834 C.3       1 <0>        -0.2400
     13 C11        -0.7862   -0.6272    0.8658 C.2       1 <0>         0.3024
     14 O2         -1.7609   -0.0447    1.2918 O.2       1 <0>        -0.3173
     15 N1         -0.6128   -1.9365    1.1344 N.am      1 <0>        -0.3292
     16 C12        -1.6017   -2.6455    1.8155 C.ar      1 <0>         0.0848
     17 C13        -2.3273   -2.0258    2.8280 C.ar      1 <0>        -0.1367
     18 C14        -3.3077   -2.7214    3.4991 C.ar      1 <0>        -0.0876
     19 C15        -3.5663   -4.0546    3.1695 C.ar      1 <0>        -0.1472
     20 C16        -2.8320   -4.6756    2.1555 C.ar      1 <0>        -0.0485
     21 C17        -1.8566   -3.9727    1.4848 C.ar      1 <0>        -0.1737
     22 C18        -4.6131   -4.8050    3.8904 C.2       1 <0>         0.3516
     23 O3         -4.8373   -5.9648    3.6023 O.2       1 <0>        -0.3724
     24 N2         -5.3204   -4.2047    4.8680 N.am      1 <0>        -0.4282
     25 H2          4.5800    5.3729   -0.0198 H         1 <0>         0.0846
     26 H3          4.8036    4.6898   -1.6482 H         1 <0>         0.0827
     27 H4          3.6816    6.0491   -1.3997 H         1 <0>         0.0803
     28 H5          1.5067    5.6957   -0.3843 H         1 <0>         0.1364
     29 H6         -0.3290    4.1100    0.0318 H         1 <0>         0.1479
     30 H7          2.3668    0.8462   -0.5554 H         1 <0>         0.1313
     31 H8          5.1465    2.1748   -0.1384 H         1 <0>         0.0880
     32 H9          4.5170    1.3330   -1.5748 H         1 <0>         0.0784
     33 H10         5.1017    3.0087   -1.7103 H         1 <0>         0.0887
     34 H11         0.5046   -1.5153   -1.3475 H         1 <0>         0.0786
     35 H12        -0.7433   -0.3415   -1.8305 H         1 <0>         0.1070
     36 H13         0.9798    0.0779   -1.9834 H         1 <0>         0.0983
     37 H14         0.1999   -2.3857    0.8540 H         1 <0>         0.2334
     38 H15        -2.1241   -0.9967    3.0850 H         1 <0>         0.1682
     39 H16        -3.8734   -2.2386    4.2822 H         1 <0>         0.1296
     40 H17        -3.0296   -5.7057    1.8982 H         1 <0>         0.1598
     41 H18        -1.2890   -4.4519    0.7009 H         1 <0>         0.1349
     42 H19        -5.1415   -3.2794    5.0978 H         1 <0>         0.2165
     43 H20        -6.0083   -4.6979    5.3418 H         1 <0>         0.2312
@<TRIPOS>BOND
     1    1    2 1
     2    1   25 1
     3    1   26 1
     4    1   27 1
     5    2    7 ar
     6    2    3 ar
     7    3    4 ar
     8    3   28 1
     9    4    5 ar
    10    4   29 1
    11    5    6 ar
    12    5    9 1
    13    6    7 ar
    14    6   30 1
    15    7    8 1
    16    8   31 1
    17    8   32 1
    18    8   33 1
    19    9   10 1
    20   10   11 1
    21   10   12 1
    22   10   13 1
    23   12   34 1
    24   12   35 1
    25   12   36 1
    26   13   14 2
    27   13   15 am
    28   15   16 1
    29   15   37 1
    30   16   21 ar
    31   16   17 ar
    32   17   18 ar
    33   17   38 1
    34   18   19 ar
    35   18   39 1
    36   19   20 ar
    37   19   22 1
    38   20   21 ar
    39   20   40 1
    40   21   41 1
    41   22   23 2
    42   22   24 am
    43   24   42 1
    44   24   43 1
@<TRIPOS>MOLECULE
ZINC03447830
   38    39     0     0     0
SMALL
USER_CHARGES

@<TRIPOS>ATOM
      1 C1          0.1462    6.7942   -1.5649 C.3       1 <0>        -0.1466
      2 C2          0.4677    5.6238   -0.6718 C.2       1 <0>        -0.0735
      3 C3          0.5906    5.6639    0.6705 C.2       1 <0>        -0.2073
      4 C4          0.8900    4.3578    1.1058 C.2       1 <0>        -0.1755
      5 C5          0.9470    3.5710    0.0122 C.2       1 <0>        -0.1298
      6 N1          0.6854    4.3418   -1.0816 N.pl3     1 <0>        -0.1125
      7 C6          0.6445    3.8703   -2.4680 C.3       1 <0>        -0.0713
      8 C7          1.2424    2.0932    0.0014 C.3       1 <0>         0.0673
      9 N2         -0.0162    1.3436    0.0094 N.am      1 <0>        -0.3880
     10 C8          0.0021   -0.0041    0.0020 C.2       1 <0>         0.3421
     11 O1          1.0629   -0.5975   -0.0113 O.2       1 <0>        -0.3587
     12 C9         -1.2676   -0.7603    0.0101 C.ar      1 <0>        -0.1481
     13 C10        -2.4876   -0.0815    0.0312 C.ar      1 <0>        -0.0472
     14 C11        -3.6689   -0.7925    0.0338 C.ar      1 <0>        -0.1517
     15 C12        -3.6470   -2.1776    0.0261 C.ar      1 <0>         0.0513
     16 C13        -2.4399   -2.8565    0.0105 C.ar      1 <0>        -0.7673
     17 C14        -1.2518   -2.1562    0.0024 C.ar      1 <0>         0.0406
     18 S1         -2.4222   -4.6184    0.0003 S.o2      1 <0>         2.7626
     19 O2         -3.3242   -5.0277   -1.0185 O.2       1 <0>        -0.9019
     20 O3         -1.0565   -5.0108    0.0113 O.2       1 <0>        -0.9062
     21 N3         -3.0712   -5.1229    1.4378 N.pl3     1 <0>        -0.9246
     22 Cl1        -5.1384   -3.0660    0.0356 Cl        1 <0>         0.0106
     23 H1         -0.9344    6.8751   -1.6830 H         1 <0>         0.0858
     24 H2          0.5322    7.7099   -1.1170 H         1 <0>         0.0964
     25 H3          0.6081    6.6443   -2.5407 H         1 <0>         0.0762
     26 H4          0.4768    6.5362    1.2971 H         1 <0>         0.1502
     27 H5          1.0474    4.0448    2.1274 H         1 <0>         0.1505
     28 H6         -0.3687    3.5521   -2.7138 H         1 <0>         0.0837
     29 H7          0.9435    4.6784   -3.1356 H         1 <0>         0.0959
     30 H8          1.3281    3.0295   -2.5862 H         1 <0>         0.0993
     31 H9          1.8260    1.8329    0.8845 H         1 <0>         0.1146
     32 H10         1.8090    1.8425   -0.8954 H         1 <0>         0.0952
     33 H11        -0.8627    1.8171    0.0160 H         1 <0>         0.2269
     34 H12        -2.5060    0.9983    0.0414 H         1 <0>         0.1387
     35 H13        -4.6133   -0.2685    0.0460 H         1 <0>         0.1531
     36 H14        -0.3112   -2.6866   -0.0094 H         1 <0>         0.1911
     37 H15        -3.5477   -5.9664    1.4853 H         1 <0>         0.2468
     38 H16        -2.9748   -4.5749    2.2324 H         1 <0>         0.2317
@<TRIPOS>BOND
     1    1    2 1
     2    1   23 1
     3    1   24 1
     4    1   25 1
     5    2    6 1
     6    2    3 2
     7    3    4 1
     8    3   26 1
     9    4    5 2
    10    4   27 1
    11    5    6 1
    12    5    8 1
    13    6    7 1
    14    7   28 1
    15    7   29 1
    16    7   30 1
    17    8    9 1
    18    8   31 1
    19    8   32 1
    20    9   10 am
    21    9   33 1
    22   10   11 2
    23   10   12 1
    24   12   17 ar
    25   12   13 ar
    26   13   14 ar
    27   13   34 1
    28   14   15 ar
    29   14   35 1
    30   15   16 ar
    31   15   22 1
    32   16   17 ar
    33   16   18 1
    34   17   36 1
    35   18   19 2
    36   18   20 2
    37   18   21 1
    38   21   37 1
    39   21   38 1
@<TRIPOS>MOLECULE
ZINC03448750
   42    44     0     0     0
SMALL
USER_CHARGES

@<TRIPOS>ATOM
      1 C1         -1.0334   -2.2693   -0.0070 C.ar      1 <0>        -0.1191
      2 C2         -2.1474   -3.0827    0.0037 C.ar      1 <0>        -0.0656
      3 C3         -3.4142   -2.5262    0.0189 C.ar      1 <0>        -0.1091
      4 C4         -3.5729   -1.1517    0.0287 C.ar      1 <0>        -0.0672
      5 C5         -2.4675   -0.3265    0.0235 C.ar      1 <0>        -0.1214
      6 C6         -1.1862   -0.8813    0.0082 C.ar      1 <0>         0.0367
      7 C7          0.0021   -0.0041    0.0020 C.2       1 <0>        -0.0095
      8 C8          1.3012   -0.4238   -0.0126 C.2       1 <0>        -0.1932
      9 C9          2.1034    0.7219   -0.0141 C.2       1 <0>        -0.1289
     10 C10         1.2510    1.8040   -0.0002 C.2       1 <0>        -0.1020
     11 O1         -0.0161    1.3393    0.0094 O.3       1 <0>        -0.0489
     12 C11         1.6503    3.2139    0.0028 C.2       1 <0>         0.3881
     13 O2          2.8303    3.5122   -0.0072 O.2       1 <0>        -0.3501
     14 N1          0.7110    4.1803    0.0167 N.am      1 <0>        -0.3766
     15 C12         1.1103    5.5898    0.0197 C.3       1 <0>         0.0372
     16 C13         1.3842    6.0392    1.4564 C.3       1 <0>        -0.1725
     17 C14         1.8012    7.5113    1.4595 C.3       1 <0>        -0.1937
     18 C15         0.6765    8.3612    0.8650 C.3       1 <0>         0.0435
     19 C16         0.4025    7.9118   -0.5716 C.3       1 <0>        -0.1466
     20 C17        -0.0145    6.4398   -0.5748 C.3       1 <0>        -0.1720
     21 O3          1.0659    9.7361    0.8679 O.3       1 <0>        -0.3497
     22 N2         -4.6050   -3.4054    0.0241 N.pl3     1 <0>         0.5477
     23 O4         -5.7214   -2.9185    0.0370 O.2       1 <0>        -0.3527
     24 O5         -4.4685   -4.6157    0.0154 O.3       1 <0>        -0.3527
     25 H1         -0.0453   -2.7049   -0.0233 H         1 <0>         0.1531
     26 H2         -2.0306   -4.1563   -0.0035 H         1 <0>         0.1702
     27 H3         -4.5645   -0.7239    0.0409 H         1 <0>         0.1692
     28 H4         -2.5928    0.7462    0.0308 H         1 <0>         0.1569
     29 H5          1.6447   -1.4477   -0.0209 H         1 <0>         0.1645
     30 H6          3.1830    0.7524   -0.0246 H         1 <0>         0.1816
     31 H7         -0.2294    3.9425    0.0247 H         1 <0>         0.2298
     32 H8          2.0135    5.7129   -0.5779 H         1 <0>         0.1259
     33 H9          0.4811    5.9161    2.0541 H         1 <0>         0.0814
     34 H10         2.1855    5.4337    1.8799 H         1 <0>         0.1042
     35 H11         2.7044    7.6344    0.8619 H         1 <0>         0.1018
     36 H12         1.9964    7.8314    2.4830 H         1 <0>         0.0835
     37 H13        -0.2267    8.2381    1.4627 H         1 <0>         0.0694
     38 H14         1.3057    8.0349   -1.1693 H         1 <0>         0.0998
     39 H15        -0.3988    8.5173   -0.9952 H         1 <0>         0.0983
     40 H16        -0.2096    6.1196   -1.5983 H         1 <0>         0.0940
     41 H17        -0.9176    6.3167    0.0229 H         1 <0>         0.0833
     42 H18         1.2558   10.0893    1.7479 H         1 <0>         0.2113
@<TRIPOS>BOND
     1    1    6 ar
     2    1    2 ar
     3    1   25 1
     4    2    3 ar
     5    2   26 1
     6    3    4 ar
     7    3   22 1
     8    4    5 ar
     9    4   27 1
    10    5    6 ar
    11    5   28 1
    12    6    7 1
    13    7   11 1
    14    7    8 2
    15    8    9 1
    16    8   29 1
    17    9   10 2
    18    9   30 1
    19   10   11 1
    20   10   12 1
    21   12   13 2
    22   12   14 am
    23   14   15 1
    24   14   31 1
    25   15   20 1
    26   15   16 1
    27   15   32 1
    28   16   17 1
    29   16   33 1
    30   16   34 1
    31   17   18 1
    32   17   35 1
    33   17   36 1
    34   18   19 1
    35   18   21 1
    36   18   37 1
    37   19   20 1
    38   19   38 1
    39   19   39 1
    40   20   40 1
    41   20   41 1
    42   21   42 1
    43   22   23 2
    44   22   24 1
@<TRIPOS>MOLECULE
ZINC03451257
   40    42     0     0     0
SMALL
USER_CHARGES

@<TRIPOS>ATOM
      1 C1          4.3284   -6.9869    0.4205 C.ar      1 <0>        -0.1255
      2 C2          4.1679   -8.3546    0.5052 C.ar      1 <0>        -0.0906
      3 C3          5.2735   -9.1809    0.5978 C.ar      1 <0>        -0.1044
      4 C4          6.5550   -8.6383    0.6007 C.ar      1 <0>         0.1163
      5 C5          6.7263   -7.2665    0.5107 C.ar      1 <0>        -0.1428
      6 C6          5.6103   -6.4330    0.4173 C.ar      1 <0>        -0.0666
      7 C7          5.7847   -4.9696    0.3215 C.2       1 <0>         0.3532
      8 O1          6.9005   -4.4895    0.3239 O.2       1 <0>        -0.3644
      9 O2          4.7062   -4.1672    0.2314 O.3       1 <0>        -0.2314
     10 C8          4.9529   -2.7392    0.1404 C.3       1 <0>        -0.0253
     11 C9          3.6388   -2.0074    0.0477 C.2       1 <0>         0.2970
     12 O3          2.5968   -2.6283    0.0573 O.2       1 <0>        -0.3233
     13 N1          3.6213   -0.6630   -0.0460 N.am      1 <0>        -0.3249
     14 C10         2.4012    0.0251   -0.0209 C.ar      1 <0>         0.0616
     15 C11         1.3458   -0.4598    0.7399 C.ar      1 <0>        -0.1270
     16 C12         0.1422    0.2175    0.7639 C.ar      1 <0>        -0.1052
     17 C13        -0.0160    1.3837    0.0296 C.ar      1 <0>         0.0047
     18 C14         1.0398    1.8734   -0.7303 C.ar      1 <0>         0.0358
     19 C15         2.2470    1.1919   -0.7559 C.ar      1 <0>        -0.1571
     20 O4          0.9062    3.0206   -1.4506 O.3       1 <0>        -0.2060
     21 C16        -0.4291    3.4730   -1.6993 C.3       1 <0>        -0.0511
     22 C17        -1.2157    3.3954   -0.3839 C.3       1 <0>        -0.0521
     23 O5         -1.2127    2.0334    0.0592 O.3       1 <0>        -0.2036
     24 N2          7.6692   -9.4773    0.6940 N.pl3     1 <0>        -0.4127
     25 Cl1         5.0617  -10.9003    0.7102 Cl        1 <0>        -0.0300
     26 H1          3.4626   -6.3448    0.3529 H         1 <0>         0.1620
     27 H2          3.1758   -8.7813    0.5034 H         1 <0>         0.1502
     28 H3          7.7200   -6.8433    0.5132 H         1 <0>         0.1593
     29 H4          5.5491   -2.5294   -0.7477 H         1 <0>         0.1101
     30 H5          5.4923   -2.4064    1.0271 H         1 <0>         0.1110
     31 H6          4.4534   -0.1719   -0.1309 H         1 <0>         0.2330
     32 H7          1.4658   -1.3674    1.3129 H         1 <0>         0.1653
     33 H8         -0.6777   -0.1619    1.3556 H         1 <0>         0.1506
     34 H9          3.0676    1.5694   -1.3479 H         1 <0>         0.1447
     35 H10        -0.4080    4.5032   -2.0547 H         1 <0>         0.1210
     36 H11        -0.8997    2.8356   -2.4479 H         1 <0>         0.0961
     37 H12        -0.7414    4.0284    0.3660 H         1 <0>         0.0934
     38 H13        -2.2414    3.7254   -0.5488 H         1 <0>         0.1217
     39 H14         8.5624   -9.0990    0.6957 H         1 <0>         0.2250
     40 H15         7.5492  -10.4377    0.7571 H         1 <0>         0.2321
@<TRIPOS>BOND
     1    1    6 ar
     2    1    2 ar
     3    1   26 1
     4    2    3 ar
     5    2   27 1
     6    3    4 ar
     7    3   25 1
     8    4    5 ar
     9    4   24 1
    10    5    6 ar
    11    5   28 1
    12    6    7 1
    13    7    8 2
    14    7    9 1
    15    9   10 1
    16   10   11 1
    17   10   29 1
    18   10   30 1
    19   11   12 2
    20   11   13 am
    21   13   14 1
    22   13   31 1
    23   14   19 ar
    24   14   15 ar
    25   15   16 ar
    26   15   32 1
    27   16   17 ar
    28   16   33 1
    29   17   23 1
    30   17   18 ar
    31   18   19 ar
    32   18   20 1
    33   19   34 1
    34   20   21 1
    35   21   22 1
    36   21   35 1
    37   21   36 1
    38   22   23 1
    39   22   37 1
    40   22   38 1
    41   24   39 1
    42   24   40 1
@<TRIPOS>MOLECULE
ZINC03451805
   39    40     0     0     0
SMALL
USER_CHARGES

@<TRIPOS>ATOM
      1 C1         -8.5256    0.7314    0.7578 C.3       1 <0>        -0.1740
      2 C2         -7.1673    0.2009    0.3773 C.ar      1 <0>        -0.0944
      3 C3         -6.9659   -1.1636    0.2645 C.ar      1 <0>        -0.0897
      4 C4         -5.7222   -1.6590   -0.0843 C.ar      1 <0>        -0.1502
      5 C5         -4.6737   -0.7945   -0.3226 C.ar      1 <0>        -0.0736
      6 C6         -4.8700    0.5832   -0.2106 C.ar      1 <0>        -0.1180
      7 C7         -6.1264    1.0762    0.1480 C.ar      1 <0>        -0.0044
      8 C8         -6.3459    2.5615    0.2778 C.3       1 <0>        -0.1889
      9 C9         -3.7521    1.5149   -0.4643 C.2       1 <0>         0.3558
     10 O1         -3.9509    2.7132   -0.4765 O.2       1 <0>        -0.3671
     11 O2         -2.5121    1.0357   -0.6823 O.3       1 <0>        -0.2368
     12 C10        -1.4623    2.0092   -0.9247 C.3       1 <0>        -0.0183
     13 C11        -0.1547    1.2934   -1.1457 C.2       1 <0>         0.2887
     14 O3         -0.1118    0.0821   -1.1031 O.2       1 <0>        -0.3183
     15 N1          0.9659    1.9990   -1.3961 N.am      1 <0>        -0.2625
     16 C12         2.1679    1.3402   -1.6051 C.2       1 <0>        -0.0863
     17 C13         3.4158    1.8870   -1.8797 C.2       1 <0>        -0.2735
     18 C14         4.5082    0.9588   -2.0496 C.2       1 <0>        -0.1280
     19 C15         4.2238   -0.3513   -1.9390 C.2       1 <0>        -0.3782
     20 S1          2.4766   -0.3636   -1.5947 S.3       1 <0>         0.5071
     21 C16         3.6138    3.3358   -1.9876 C.2       1 <0>         0.3845
     22 O4          2.6721    4.0917   -1.8355 O.2       1 <0>        -0.4148
     23 N2          4.8386    3.8305   -2.2551 N.am      1 <0>        -0.4219
     24 H1         -8.5919    0.8158    1.8425 H         1 <0>         0.0876
     25 H2         -8.6715    1.7132    0.3075 H         1 <0>         0.0888
     26 H3         -9.2959    0.0489    0.3987 H         1 <0>         0.0818
     27 H4         -7.7832   -1.8447    0.4500 H         1 <0>         0.1332
     28 H5         -5.5718   -2.7250   -0.1706 H         1 <0>         0.1363
     29 H6         -3.7035   -1.1826   -0.5956 H         1 <0>         0.1545
     30 H7         -6.5503    2.9859   -0.7051 H         1 <0>         0.0993
     31 H8         -7.1938    2.7471    0.9372 H         1 <0>         0.0759
     32 H9         -5.4524    3.0257    0.6954 H         1 <0>         0.1203
     33 H10        -1.3736    2.6701   -0.0625 H         1 <0>         0.1166
     34 H11        -1.7089    2.5968   -1.8090 H         1 <0>         0.1172
     35 H12         0.9315    2.9678   -1.4302 H         1 <0>         0.2773
     36 H13         5.5103    1.3014   -2.2611 H         1 <0>         0.1379
     37 H14         4.8937   -1.1929   -2.0353 H         1 <0>         0.1882
     38 H15         5.5891    3.2281   -2.3764 H         1 <0>         0.2183
     39 H16         4.9696    4.7890   -2.3265 H         1 <0>         0.2298
@<TRIPOS>BOND
     1    1    2 1
     2    1   24 1
     3    1   25 1
     4    1   26 1
     5    2    7 ar
     6    2    3 ar
     7    3    4 ar
     8    3   27 1
     9    4    5 ar
    10    4   28 1
    11    5    6 ar
    12    5   29 1
    13    6    7 ar
    14    6    9 1
    15    7    8 1
    16    8   30 1
    17    8   31 1
    18    8   32 1
    19    9   10 2
    20    9   11 1
    21   11   12 1
    22   12   13 1
    23   12   33 1
    24   12   34 1
    25   13   14 2
    26   13   15 am
    27   15   16 1
    28   15   35 1
    29   16   20 1
    30   16   17 2
    31   17   18 1
    32   17   21 1
    33   18   19 2
    34   18   36 1
    35   19   20 1
    36   19   37 1
    37   21   22 2
    38   21   23 am
    39   23   38 1
    40   23   39 1
@<TRIPOS>MOLECULE
ZINC03451937
   38    39     0     0     0
SMALL
USER_CHARGES

@<TRIPOS>ATOM
      1 C1         -1.0700    4.0139    0.0290 C.3       1 <0>        -0.3762
      2 S1         -1.5519    2.2651    0.0217 S.3       1 <0>         0.2859
      3 C2         -0.0170    1.4001    0.0097 C.ar      1 <0>        -0.1455
      4 C3          1.1821    2.1039    0.0021 C.ar      1 <0>        -0.1630
      5 C4          2.3820    1.4242   -0.0135 C.ar      1 <0>        -0.0835
      6 C5          2.4038    0.0379   -0.0207 C.ar      1 <0>        -0.1529
      7 C6          1.2266   -0.6771   -0.0133 C.ar      1 <0>        -0.0843
      8 C7          0.0021   -0.0041    0.0020 C.ar      1 <0>        -0.1306
      9 C8         -1.2614   -0.7630    0.0095 C.2       1 <0>         0.3458
     10 O1         -2.3249   -0.1733    0.0224 O.2       1 <0>        -0.3506
     11 N1         -1.2381   -2.1106    0.0021 N.am      1 <0>        -0.3878
     12 C9         -2.4939   -2.8649    0.0095 C.3       1 <0>         0.0290
     13 C10        -2.1930   -4.3415   -0.0012 C.ar      1 <0>        -0.0536
     14 C11        -2.0715   -5.0135   -1.2031 C.ar      1 <0>        -0.1375
     15 C12        -1.7911   -6.3671   -1.2130 C.ar      1 <0>        -0.0288
     16 C13        -1.6413   -7.0506   -0.0208 C.ar      1 <0>        -0.7568
     17 C14        -1.7679   -6.3797    1.1812 C.ar      1 <0>        -0.0288
     18 C15        -2.0440   -5.0252    1.1910 C.ar      1 <0>        -0.1375
     19 S2         -1.2882   -8.7768   -0.0333 S.o2      1 <0>         2.7614
     20 O2         -0.6795   -9.0578   -1.2862 O.2       1 <0>        -0.9153
     21 O3         -0.6549   -9.0708    1.2043 O.2       1 <0>        -0.9153
     22 N2         -2.7399   -9.5735   -0.0231 N.pl3     1 <0>        -0.9305
     23 H1         -1.9642    4.6372    0.0366 H         1 <0>         0.1206
     24 H2         -0.4739    4.2229    0.9173 H         1 <0>         0.0934
     25 H3         -0.4824    4.2326   -0.8627 H         1 <0>         0.0932
     26 H4          1.1739    3.1839    0.0079 H         1 <0>         0.1391
     27 H5          3.3107    1.9754   -0.0198 H         1 <0>         0.1332
     28 H6          3.3492   -0.4841   -0.0325 H         1 <0>         0.1343
     29 H7          1.2500   -1.7569   -0.0197 H         1 <0>         0.1275
     30 H8         -0.3898   -2.5809   -0.0082 H         1 <0>         0.2287
     31 H9         -3.0618   -2.6163    0.9061 H         1 <0>         0.1045
     32 H10        -3.0781   -2.6068   -0.8738 H         1 <0>         0.1045
     33 H11        -2.1923   -4.4802   -2.1345 H         1 <0>         0.1448
     34 H12        -1.6919   -6.8911   -2.1521 H         1 <0>         0.1562
     35 H13        -1.6508   -6.9137    2.1126 H         1 <0>         0.1562
     36 H14        -2.1429   -4.5011    2.1301 H         1 <0>         0.1448
     37 H15        -3.5692   -9.0705   -0.0123 H         1 <0>         0.2305
     38 H16        -2.7609  -10.5433   -0.0280 H         1 <0>         0.2451
@<TRIPOS>BOND
     1    1    2 1
     2    1   23 1
     3    1   24 1
     4    1   25 1
     5    2    3 1
     6    3    8 ar
     7    3    4 ar
     8    4    5 ar
     9    4   26 1
    10    5    6 ar
    11    5   27 1
    12    6    7 ar
    13    6   28 1
    14    7    8 ar
    15    7   29 1
    16    8    9 1
    17    9   10 2
    18    9   11 am
    19   11   12 1
    20   11   30 1
    21   12   13 1
    22   12   31 1
    23   12   32 1
    24   13   18 ar
    25   13   14 ar
    26   14   15 ar
    27   14   33 1
    28   15   16 ar
    29   15   34 1
    30   16   17 ar
    31   16   19 1
    32   17   18 ar
    33   17   35 1
    34   18   36 1
    35   19   20 2
    36   19   21 2
    37   19   22 1
    38   22   37 1
    39   22   38 1
@<TRIPOS>MOLECULE
ZINC03452289
   42    44     0     0     0
SMALL
USER_CHARGES

@<TRIPOS>ATOM
      1 C1          3.4552   10.0354   -1.0571 C.3       1 <0>        -0.1890
      2 C2          4.7051    9.5086   -0.4005 C.ar      1 <0>        -0.0543
      3 C3          4.8211    8.1550   -0.1117 C.ar      1 <0>         0.0566
      4 C4          5.9768    7.6727    0.4882 C.ar      1 <0>        -0.1016
      5 C5          7.0049    8.5406    0.8007 C.ar      1 <0>        -0.1223
      6 C6          6.8840    9.8884    0.5171 C.ar      1 <0>        -0.0873
      7 C7          5.7342   10.3720   -0.0804 C.ar      1 <0>        -0.0956
      8 N1          5.6087   11.8157   -0.3817 N.pl3     1 <0>         0.5510
      9 O1          6.5652   12.5546   -0.2313 O.2       1 <0>        -0.3527
     10 O2          4.5489   12.2648   -0.7801 O.3       1 <0>        -0.3640
     11 N2          3.7781    7.2783   -0.4300 N.am      1 <0>        -0.3155
     12 C8          4.0182    5.9566   -0.5391 C.2       1 <0>         0.3016
     13 O3          5.1531    5.5374   -0.4537 O.2       1 <0>        -0.3646
     14 C9          2.8766    4.9996   -0.7672 C.3       1 <0>        -0.1696
     15 C10         3.4180    3.5712   -0.8532 C.3       1 <0>        -0.1077
     16 C11         2.2764    2.6142   -1.0813 C.2       1 <0>         0.1263
     17 N3          2.5574    1.2892   -1.1862 N.am      1 <0>        -0.3098
     18 H1          3.5042    0.9761   -1.1113 H         1 <0>         0.2539
     19 C12         1.5677    0.3890   -1.3912 C.2       1 <0>         0.3450
     20 O4          1.8051   -0.8009   -1.4874 O.2       1 <0>        -0.3418
     21 C13         0.1950    0.9052   -1.4993 C.ar      1 <0>        -0.1853
     22 C14        -0.8955    0.0623   -1.7036 C.ar      1 <0>        -0.0496
     23 C15        -2.1612    0.5991   -1.7916 C.ar      1 <0>        -0.1523
     24 C16        -2.3574    1.9688   -1.6720 C.ar      1 <0>        -0.0901
     25 C17        -1.2941    2.8181   -1.4640 C.ar      1 <0>        -0.1234
     26 C18        -0.0015    2.2981   -1.3712 C.ar      1 <0>         0.0560
     27 N4          1.0747    3.0983   -1.1671 N.2       1 <0>        -0.2363
     28 H2          2.7881   10.4404   -0.2962 H         1 <0>         0.1051
     29 H3          3.7199   10.8217   -1.7641 H         1 <0>         0.1319
     30 H4          2.9535    9.2250   -1.5861 H         1 <0>         0.0692
     31 H5          6.0715    6.6201    0.7106 H         1 <0>         0.1895
     32 H6          7.9040    8.1661    1.2673 H         1 <0>         0.1511
     33 H7          7.6892   10.5650    0.7624 H         1 <0>         0.1642
     34 H8          2.8821    7.6218   -0.5720 H         1 <0>         0.2443
     35 H9          2.3706    5.2531   -1.6988 H         1 <0>         0.1253
     36 H10         2.1712    5.0716    0.0607 H         1 <0>         0.1259
     37 H11         3.9240    3.3177    0.0784 H         1 <0>         0.1196
     38 H12         4.1234    3.4992   -1.6811 H         1 <0>         0.1217
     39 H13        -0.7490   -1.0036   -1.7973 H         1 <0>         0.1555
     40 H14        -3.0082   -0.0508   -1.9546 H         1 <0>         0.1377
     41 H15        -3.3565    2.3727   -1.7436 H         1 <0>         0.1356
     42 H16        -1.4590    3.8816   -1.3726 H         1 <0>         0.1463
@<TRIPOS>BOND
     1    1    2 1
     2    1   28 1
     3    1   29 1
     4    1   30 1
     5    2    7 ar
     6    2    3 ar
     7    3    4 ar
     8    3   11 1
     9    4    5 ar
    10    4   31 1
    11    5    6 ar
    12    5   32 1
    13    6    7 ar
    14    6   33 1
    15    7    8 1
    16    8    9 2
    17    8   10 1
    18   11   12 am
    19   11   34 1
    20   12   13 2
    21   12   14 1
    22   14   15 1
    23   14   35 1
    24   14   36 1
    25   15   16 1
    26   15   37 1
    27   15   38 1
    28   16   27 2
    29   16   17 1
    30   17   18 1
    31   17   19 am
    32   19   20 2
    33   19   21 1
    34   21   26 ar
    35   21   22 ar
    36   22   23 ar
    37   22   39 1
    38   23   24 ar
    39   23   40 1
    40   24   25 ar
    41   24   41 1
    42   25   26 ar
    43   25   42 1
    44   26   27 1
@<TRIPOS>MOLECULE
ZINC03452289
   42    44     0     0     0
SMALL
USER_CHARGES

@<TRIPOS>ATOM
      1 C1          3.4672   10.0370   -1.2021 C.3       1 <0>        -0.1884
      2 C2          4.7200    9.5180   -0.5448 C.ar      1 <0>        -0.0569
      3 C3          4.8361    8.1684   -0.2377 C.ar      1 <0>         0.0595
      4 C4          5.9944    7.6933    0.3628 C.ar      1 <0>        -0.1016
      5 C5          7.0251    8.5643    0.6577 C.ar      1 <0>        -0.1224
      6 C6          6.9041    9.9081    0.3559 C.ar      1 <0>        -0.0897
      7 C7          5.7517   10.3846   -0.2422 C.ar      1 <0>        -0.0959
      8 N1          5.6261   11.8241   -0.5631 N.pl3     1 <0>         0.5513
      9 O1          6.5842   12.5639   -0.4281 O.2       1 <0>        -0.3548
     10 O2          4.5647   12.2688   -0.9621 O.3       1 <0>        -0.3656
     11 N2          3.7905    7.2886   -0.5382 N.am      1 <0>        -0.3188
     12 C8          4.0286    5.9652   -0.6300 C.2       1 <0>         0.3011
     13 O3          5.1635    5.5459   -0.5447 O.2       1 <0>        -0.3595
     14 C9          2.8848    5.0064   -0.8387 C.3       1 <0>        -0.1766
     15 C10         3.4242    3.5763   -0.9075 C.3       1 <0>        -0.0787
     16 C11         2.2804    2.6175   -1.1162 C.ar      1 <0>         0.1162
     17 N3          2.5559    1.2881   -1.1731 N.ar      1 <0>        -0.2824
     18 H1          0.9489   -1.3024   -1.6123 H         1 <0>         0.2719
     19 C12         1.5662    0.3878   -1.3774 C.ar      1 <0>         0.2376
     20 O4          1.8024   -0.8032   -1.4626 O.3       1 <0>        -0.1589
     21 C13         0.2034    0.9093   -1.5588 C.ar      1 <0>        -0.2523
     22 C14        -0.8820    0.0689   -1.7974 C.ar      1 <0>        -0.1047
     23 C15        -2.1457    0.6070   -1.9069 C.ar      1 <0>        -0.1336
     24 C16        -2.3400    1.9787   -1.8098 C.ar      1 <0>        -0.0946
     25 C17        -1.2803    2.8266   -1.5791 C.ar      1 <0>        -0.1130
     26 C18         0.0086    2.3044   -1.4536 C.ar      1 <0>         0.0925
     27 N4          1.0821    3.1037   -1.2325 N.ar      1 <0>        -0.2675
     28 H2          2.8046   10.4533   -0.4435 H         1 <0>         0.1037
     29 H3          3.7290   10.8130   -1.9215 H         1 <0>         0.1306
     30 H4          2.9619    9.2198   -1.7171 H         1 <0>         0.0696
     31 H5          6.0892    6.6438    0.5994 H         1 <0>         0.1916
     32 H6          7.9262    8.1953    1.1248 H         1 <0>         0.1505
     33 H7          7.7113   10.5872    0.5875 H         1 <0>         0.1629
     34 H8          2.8941    7.6311   -0.6803 H         1 <0>         0.2427
     35 H9          2.3742    5.2474   -1.7711 H         1 <0>         0.1203
     36 H10         2.1838    5.0908   -0.0082 H         1 <0>         0.1200
     37 H11         3.9348    3.3353    0.0248 H         1 <0>         0.1243
     38 H12         4.1251    3.4919   -1.7381 H         1 <0>         0.1264
     39 H13        -0.7348   -0.9972   -1.8879 H         1 <0>         0.1170
     40 H14        -2.9905   -0.0423   -2.0830 H         1 <0>         0.1363
     41 H15        -3.3356    2.3848   -1.9118 H         1 <0>         0.1382
     42 H16        -1.4445    3.8912   -1.5002 H         1 <0>         0.1517
@<TRIPOS>BOND
     1    1    2 1
     2    1   28 1
     3    1   29 1
     4    1   30 1
     5    2    7 ar
     6    2    3 ar
     7    3    4 ar
     8    3   11 1
     9    4    5 ar
    10    4   31 1
    11    5    6 ar
    12    5   32 1
    13    6    7 ar
    14    6   33 1
    15    7    8 1
    16    8    9 2
    17    8   10 1
    18   11   12 am
    19   11   34 1
    20   12   13 2
    21   12   14 1
    22   14   15 1
    23   14   35 1
    24   14   36 1
    25   15   16 1
    26   15   37 1
    27   15   38 1
    28   16   27 ar
    29   16   17 ar
    30   17   19 ar
    31   18   20 1
    32   19   20 1
    33   19   21 ar
    34   21   22 ar
    35   21   26 ar
    36   22   23 ar
    37   22   39 1
    38   23   24 ar
    39   23   40 1
    40   24   25 ar
    41   24   41 1
    42   25   26 ar
    43   25   42 1
    44   26   27 ar
@<TRIPOS>MOLECULE
ZINC03452854
   39    40     0     0     0
SMALL
USER_CHARGES

@<TRIPOS>ATOM
      1 C1          1.1432    3.5928   -0.0155 C.3       1 <0>        -0.1734
      2 C2          1.1682    2.0860   -0.0167 C.ar      1 <0>        -0.0864
      3 C3          2.1113    1.4123   -0.7709 C.ar      1 <0>        -0.1090
      4 C4          2.1370    0.0314   -0.7742 C.ar      1 <0>        -0.1203
      5 C5          1.2143   -0.6805   -0.0189 C.ar      1 <0>         0.0511
      6 C6          0.2684   -0.0009    0.7374 C.ar      1 <0>        -0.1550
      7 C7          0.2481    1.3801    0.7364 C.ar      1 <0>        -0.1112
      8 N1          1.2373   -2.0795   -0.0204 N.am      1 <0>        -0.3218
      9 C8          2.4096   -2.7341   -0.1369 C.2       1 <0>         0.3211
     10 O1          3.4521   -2.1143   -0.1440 O.2       1 <0>        -0.3257
     11 C9          2.4252   -4.2361   -0.2581 C.3       1 <0>        -0.3794
     12 S1          4.1390   -4.8138   -0.3979 S.3       1 <0>         0.4216
     13 C10         3.9894   -6.5644   -0.5301 C.ar      1 <0>        -0.1611
     14 C11         2.7293   -7.1580   -0.5089 C.ar      1 <0>        -0.1776
     15 C12         2.6073   -8.5143   -0.6110 C.ar      1 <0>        -0.0467
     16 C13         3.7483   -9.3127   -0.7372 C.ar      1 <0>        -0.1570
     17 C14         5.0145   -8.7196   -0.7588 C.ar      1 <0>         0.0149
     18 C15         5.1310   -7.3518   -0.6612 C.ar      1 <0>        -0.1258
     19 N2          6.4686   -6.7183   -0.6895 N.pl3     1 <0>         0.5474
     20 O2          7.4664   -7.4073   -0.8042 O.2       1 <0>        -0.3435
     21 O3          6.5713   -5.5081   -0.5981 O.3       1 <0>        -0.3356
     22 C16         3.6167  -10.7775   -0.8470 C.2       1 <0>         0.3515
     23 O4          4.6097  -11.4707   -0.9567 O.2       1 <0>        -0.3542
     24 N3          2.3957  -11.3478   -0.8256 N.am      1 <0>        -0.4264
     25 H1          0.4909    3.9460   -0.8142 H         1 <0>         0.0850
     26 H2          0.7684    3.9492    0.9440 H         1 <0>         0.0813
     27 H3          2.1521    3.9731   -0.1754 H         1 <0>         0.0840
     28 H4          2.8315    1.9666   -1.3546 H         1 <0>         0.1373
     29 H5          2.8736   -0.4942   -1.3637 H         1 <0>         0.1598
     30 H6         -0.4507   -0.5517    1.3255 H         1 <0>         0.1274
     31 H7         -0.4870    1.9092    1.3247 H         1 <0>         0.1328
     32 H8          0.4094   -2.5783    0.0623 H         1 <0>         0.2303
     33 H9          1.9642   -4.6768    0.6259 H         1 <0>         0.1203
     34 H10         1.8676   -4.5348   -1.1458 H         1 <0>         0.1211
     35 H11         1.8464   -6.5437   -0.4119 H         1 <0>         0.1428
     36 H12         1.6286   -8.9706   -0.5945 H         1 <0>         0.1346
     37 H13         5.8982   -9.3328   -0.8565 H         1 <0>         0.1940
     38 H14         1.6036  -10.7948   -0.7381 H         1 <0>         0.2136
     39 H15         2.3091  -12.3112   -0.8978 H         1 <0>         0.2380
@<TRIPOS>BOND
     1    1    2 1
     2    1   25 1
     3    1   26 1
     4    1   27 1
     5    2    7 ar
     6    2    3 ar
     7    3    4 ar
     8    3   28 1
     9    4    5 ar
    10    4   29 1
    11    5    6 ar
    12    5    8 1
    13    6    7 ar
    14    6   30 1
    15    7   31 1
    16    8    9 am
    17    8   32 1
    18    9   10 2
    19    9   11 1
    20   11   12 1
    21   11   33 1
    22   11   34 1
    23   12   13 1
    24   13   18 ar
    25   13   14 ar
    26   14   15 ar
    27   14   35 1
    28   15   16 ar
    29   15   36 1
    30   16   17 ar
    31   16   22 1
    32   17   18 ar
    33   17   37 1
    34   18   19 1
    35   19   20 2
    36   19   21 1
    37   22   23 2
    38   22   24 am
    39   24   38 1
    40   24   39 1
@<TRIPOS>MOLECULE
ZINC03454137
   40    41     0     0     0
SMALL
USER_CHARGES

@<TRIPOS>ATOM
      1 C1          2.5759    4.5063   -1.4421 C.3       1 <0>        -0.2085
      2 C2          2.2074    4.1617    0.0023 C.3       1 <0>        -0.0841
      3 C3          1.0772    3.1649    0.0083 C.2       1 <0>        -0.2587
      4 C4          1.1485    1.8079    0.0008 C.2       1 <0>        -0.1478
      5 C5         -0.0126    1.0758    0.0080 C.2       1 <0>        -0.0811
      6 C6         -1.2047    1.7829    0.0173 C.2       1 <0>        -0.3499
      7 S1         -0.6290    3.4715    0.0258 S.3       1 <0>         0.3826
      8 C7         -2.5799    1.2756    0.0208 C.2       1 <0>         0.3931
      9 O1         -2.7860    0.0761    0.0153 O.2       1 <0>        -0.3607
     10 N1         -3.6161    2.1373    0.0303 N.am      1 <0>        -0.3863
     11 C8         -4.9905    1.6303    0.0339 C.3       1 <0>         0.0310
     12 C9         -5.9536    2.7894    0.0446 C.ar      1 <0>        -0.0546
     13 C10        -6.3941    3.3109    1.2466 C.ar      1 <0>        -0.1362
     14 C11        -7.2741    4.3769    1.2564 C.ar      1 <0>        -0.0258
     15 C12        -7.7206    4.9156    0.0642 C.ar      1 <0>        -0.7566
     16 C13        -7.2841    4.3907   -1.1378 C.ar      1 <0>        -0.0325
     17 C14        -6.4008    3.3275   -1.1477 C.ar      1 <0>        -0.1361
     18 S2         -8.8456    6.2716    0.0767 S.o2      1 <0>         2.7606
     19 O2         -8.6760    6.9285    1.3253 O.2       1 <0>        -0.9167
     20 O3         -8.6860    6.9432   -1.1654 O.2       1 <0>        -0.9119
     21 N2        -10.3757    5.6383    0.0791 N.pl3     1 <0>        -0.9279
     22 C15         2.4866    1.1149   -0.0147 C.3       1 <0>        -0.1573
     23 H1          3.3934    5.2273   -1.4464 H         1 <0>         0.0788
     24 H2          2.8871    3.6011   -1.9635 H         1 <0>         0.0818
     25 H3          1.7098    4.9360   -1.9454 H         1 <0>         0.0808
     26 H4          1.8963    5.0669    0.5238 H         1 <0>         0.0941
     27 H5          3.0735    3.7320    0.5056 H         1 <0>         0.1012
     28 H6          0.0021   -0.0041    0.0020 H         1 <0>         0.1651
     29 H7         -3.4518    3.0933    0.0347 H         1 <0>         0.2300
     30 H8         -5.1577    1.0273   -0.8586 H         1 <0>         0.1040
     31 H9         -5.1495    1.0176    0.9213 H         1 <0>         0.1042
     32 H10        -6.0482    2.8876    2.1780 H         1 <0>         0.1444
     33 H11        -7.6149    4.7872    2.1955 H         1 <0>         0.1558
     34 H12        -7.6329    4.8115   -2.0693 H         1 <0>         0.1546
     35 H13        -6.0597    2.9174   -2.0868 H         1 <0>         0.1441
     36 H14       -11.1004    6.1225    0.5049 H         1 <0>         0.2452
     37 H15       -10.5474    4.7831   -0.3452 H         1 <0>         0.2313
     38 H16         2.8001    0.9531   -1.0460 H         1 <0>         0.0856
     39 H17         3.2231    1.7355    0.4958 H         1 <0>         0.0807
     40 H18         2.4046    0.1549    0.4950 H         1 <0>         0.0839
@<TRIPOS>BOND
     1    1    2 1
     2    1   23 1
     3    1   24 1
     4    1   25 1
     5    2    3 1
     6    2   26 1
     7    2   27 1
     8    3    7 1
     9    3    4 2
    10    4    5 1
    11    4   22 1
    12    5    6 2
    13    5   28 1
    14    6    7 1
    15    6    8 1
    16    8    9 2
    17    8   10 am
    18   10   11 1
    19   10   29 1
    20   11   12 1
    21   11   30 1
    22   11   31 1
    23   12   17 ar
    24   12   13 ar
    25   13   14 ar
    26   13   32 1
    27   14   15 ar
    28   14   33 1
    29   15   16 ar
    30   15   18 1
    31   16   17 ar
    32   16   34 1
    33   17   35 1
    34   18   19 2
    35   18   20 2
    36   18   21 1
    37   21   36 1
    38   21   37 1
    39   22   38 1
    40   22   39 1
    41   22   40 1
@<TRIPOS>MOLECULE
ZINC03455255
   39    40     0     0     0
SMALL
USER_CHARGES

@<TRIPOS>ATOM
      1 C1          6.2972   12.1980   -0.2092 C.3       1 <0>        -0.1414
      2 C2          4.8408   12.5610   -0.0745 C.2       1 <0>        -0.0074
      3 C3          4.3442   13.8171   -0.0240 C.2       1 <0>        -0.2426
      4 C4          2.9508   13.7059    0.0975 C.2       1 <0>        -0.1143
      5 C5          2.6643   12.3702    0.1247 C.2       1 <0>        -0.1025
      6 O1          3.8258   11.6921    0.0154 O.3       1 <0>        -0.0236
      7 C6          1.3299   11.7782    0.2449 C.2       1 <0>         0.3970
      8 O2          0.3523   12.4959    0.3370 O.2       1 <0>        -0.3558
      9 O3          1.1853   10.4371    0.2536 O.3       1 <0>        -0.2209
     10 C7         -0.1662    9.9206    0.3757 C.3       1 <0>        -0.0257
     11 C8         -0.1309    8.4140    0.3672 C.2       1 <0>         0.2954
     12 O4          0.9290    7.8328    0.2681 O.2       1 <0>        -0.3174
     13 N1         -1.2771    7.7125    0.4699 N.am      1 <0>        -0.3277
     14 C9         -1.2554    6.3159    0.3641 C.ar      1 <0>         0.0390
     15 C10        -2.3119    5.6490   -0.2421 C.ar      1 <0>        -0.1400
     16 C11        -2.2902    4.2727   -0.3468 C.ar      1 <0>        -0.1527
     17 C12        -1.2120    3.5551    0.1542 C.ar      1 <0>         0.0514
     18 C13        -0.1582    4.2216    0.7656 C.ar      1 <0>        -0.1192
     19 C14        -0.1772    5.5983    0.8651 C.ar      1 <0>        -0.1053
     20 N2         -1.1900    2.1586    0.0480 N.am      1 <0>        -0.3265
     21 C15        -0.0128    1.5026    0.0291 C.2       1 <0>         0.2991
     22 O5          1.0278    2.1250   -0.0046 O.2       1 <0>        -0.3487
     23 C16         0.0105   -0.0041    0.0436 C.3       1 <0>        -0.2416
     24 H1          6.4015   11.1130   -0.2231 H         1 <0>         0.1012
     25 H2          6.6907   12.6127   -1.1373 H         1 <0>         0.1009
     26 H3          6.8529   12.6056    0.6353 H         1 <0>         0.1007
     27 H4          4.9127   14.7341   -0.0724 H         1 <0>         0.1625
     28 H5          2.2422   14.5186    0.1598 H         1 <0>         0.1734
     29 H6         -0.7675   10.2746   -0.4617 H         1 <0>         0.1104
     30 H7         -0.6051   10.2685    1.3108 H         1 <0>         0.1079
     31 H8         -2.1171    8.1747    0.6170 H         1 <0>         0.2301
     32 H9         -3.1503    6.2071   -0.6321 H         1 <0>         0.1298
     33 H10        -3.1117    3.7540   -0.8186 H         1 <0>         0.1295
     34 H11         0.6781    3.6632    1.1595 H         1 <0>         0.1742
     35 H12         0.6447    6.1171    1.3362 H         1 <0>         0.1705
     36 H13        -2.0220    1.6636   -0.0120 H         1 <0>         0.2302
     37 H14         1.0433   -0.3518    0.0198 H         1 <0>         0.1197
     38 H15        -0.4739   -0.3663    0.9503 H         1 <0>         0.0957
     39 H16        -0.5209   -0.3842   -0.8289 H         1 <0>         0.0949
@<TRIPOS>BOND
     1    1    2 1
     2    1   24 1
     3    1   25 1
     4    1   26 1
     5    2    6 1
     6    2    3 2
     7    3    4 1
     8    3   27 1
     9    4    5 2
    10    4   28 1
    11    5    6 1
    12    5    7 1
    13    7    8 2
    14    7    9 1
    15    9   10 1
    16   10   11 1
    17   10   29 1
    18   10   30 1
    19   11   12 2
    20   11   13 am
    21   13   14 1
    22   13   31 1
    23   14   19 ar
    24   14   15 ar
    25   15   16 ar
    26   15   32 1
    27   16   17 ar
    28   16   33 1
    29   17   18 ar
    30   17   20 1
    31   18   19 ar
    32   18   34 1
    33   19   35 1
    34   20   21 am
    35   20   36 1
    36   21   22 2
    37   21   23 1
    38   23   37 1
    39   23   38 1
    40   23   39 1
@<TRIPOS>MOLECULE
ZINC03457402
   41    43     0     0     0
SMALL
USER_CHARGES

@<TRIPOS>ATOM
      1 C1          2.5003    1.5459   -0.0140 C.3       1 <0>        -0.1338
      2 C2          1.0414    1.9233    0.0024 C.2       1 <0>        -0.0893
      3 C3         -0.0126    1.0758    0.0080 C.2       1 <0>        -0.2356
      4 C4         -1.1432    1.9353    0.0171 C.2       1 <0>         0.0049
      5 N1         -0.6740    3.1554    0.0255 N.2       1 <0>        -0.0784
      6 O1          0.5351    3.1648    0.0140 O.3       1 <0>         0.0472
      7 N2         -2.4851    1.5540    0.0204 N.am      1 <0>        -0.2901
      8 C5         -2.8143    0.2471    0.0146 C.2       1 <0>         0.3049
      9 O2         -1.9439   -0.5974    0.0065 O.2       1 <0>        -0.3225
     10 C6         -4.2639   -0.1648    0.0181 C.3       1 <0>        -0.0231
     11 O3         -4.3553   -1.6139    0.0105 O.3       1 <0>        -0.2366
     12 C7         -5.5873   -2.1468    0.0125 C.2       1 <0>         0.3014
     13 O4         -6.5571   -1.4263    0.0203 O.2       1 <0>        -0.3657
     14 C8         -5.7607   -3.6438    0.0051 C.3       1 <0>        -0.1493
     15 C9         -7.2523   -3.9844    0.0091 C.3       1 <0>        -0.0753
     16 C10        -7.4258   -5.4813    0.0017 C.2       1 <0>        -0.1710
     17 C11        -7.6212   -6.2572   -1.0762 C.2       1 <0>        -0.0650
     18 N3         -7.7323   -7.5665   -0.6947 N.pl3     1 <0>        -0.1994
     19 H1         -7.8755   -8.3125   -1.2980 H         1 <0>         0.2414
     20 C12        -7.6166   -7.6669    0.6737 C.ar      1 <0>         0.0067
     21 C13        -7.4195   -6.3651    1.1700 C.ar      1 <0>        -0.0866
     22 C14        -7.2671   -6.1584    2.5420 C.ar      1 <0>        -0.0800
     23 C15        -7.3103   -7.2233    3.3975 C.ar      1 <0>        -0.1543
     24 C16        -7.5050   -8.5092    2.9130 C.ar      1 <0>        -0.1070
     25 C17        -7.6574   -8.7359    1.5624 C.ar      1 <0>        -0.1424
     26 H2          2.8420    1.4607   -1.0455 H         1 <0>         0.0988
     27 H3          3.0800    2.3136    0.4986 H         1 <0>         0.0954
     28 H4          2.6342    0.5904    0.4932 H         1 <0>         0.1028
     29 H5          0.0021   -0.0041    0.0020 H         1 <0>         0.2090
     30 H6         -3.1812    2.2295    0.0268 H         1 <0>         0.2445
     31 H7         -4.7503    0.2253    0.9121 H         1 <0>         0.1126
     32 H8         -4.7573    0.2350   -0.8678 H         1 <0>         0.1119
     33 H9         -5.2957   -4.0590   -0.8890 H         1 <0>         0.1169
     34 H10        -5.2886   -4.0687    0.8909 H         1 <0>         0.1232
     35 H11        -7.7174   -3.5692    0.9032 H         1 <0>         0.1059
     36 H12        -7.7244   -3.5595   -0.8767 H         1 <0>         0.0973
     37 H13        -7.6800   -5.9009   -2.0940 H         1 <0>         0.1661
     38 H14        -7.1156   -5.1605    2.9262 H         1 <0>         0.1295
     39 H15        -7.1919   -7.0630    4.4589 H         1 <0>         0.1294
     40 H16        -7.5370   -9.3407    3.6015 H         1 <0>         0.1303
     41 H17        -7.8077   -9.7404    1.1952 H         1 <0>         0.1256
@<TRIPOS>BOND
     1    1    2 1
     2    1   26 1
     3    1   27 1
     4    1   28 1
     5    2    6 1
     6    2    3 2
     7    3    4 1
     8    3   29 1
     9    4    5 2
    10    4    7 1
    11    5    6 1
    12    7    8 am
    13    7   30 1
    14    8    9 2
    15    8   10 1
    16   10   11 1
    17   10   31 1
    18   10   32 1
    19   11   12 1
    20   12   13 2
    21   12   14 1
    22   14   15 1
    23   14   33 1
    24   14   34 1
    25   15   16 1
    26   15   35 1
    27   15   36 1
    28   16   21 1
    29   16   17 2
    30   17   18 1
    31   17   37 1
    32   18   19 1
    33   18   20 1
    34   20   25 ar
    35   20   21 ar
    36   21   22 ar
    37   22   23 ar
    38   22   38 1
    39   23   24 ar
    40   23   39 1
    41   24   25 ar
    42   24   40 1
    43   25   41 1
@<TRIPOS>MOLECULE
ZINC03459709
   43    44     0     0     0
SMALL
USER_CHARGES

@<TRIPOS>ATOM
      1 C1          1.1387   -2.2918   -1.4477 C.3       1 <0>        -0.1883
      2 C2          1.3568   -0.9596   -0.7275 C.3       1 <0>        -0.0912
      3 C3          2.3338   -0.0992   -1.5313 C.3       1 <0>        -0.2027
      4 C4          1.9343   -1.2213    0.6650 C.3       1 <0>        -0.2036
      5 C5          0.0406   -0.2373   -0.5979 C.2       1 <0>         0.3127
      6 O1         -0.9722   -0.7386   -1.0383 O.2       1 <0>        -0.3433
      7 N1         -0.0111    0.9658    0.0074 N.am      1 <0>        -0.3308
      8 C6         -1.2151    1.6777    0.0475 C.ar      1 <0>         0.1230
      9 C7         -1.2066    3.0642   -0.0301 C.ar      1 <0>        -0.1857
     10 C8         -2.3971    3.7635    0.0031 C.ar      1 <0>        -0.0106
     11 C9         -3.5959    3.0852    0.1263 C.ar      1 <0>        -0.7678
     12 C10        -3.6073    1.7050    0.2099 C.ar      1 <0>        -0.0115
     13 C11        -2.4206    0.9995    0.1707 C.ar      1 <0>        -0.1508
     14 S1         -5.1120    3.9816    0.1761 S.o2      1 <0>         2.7363
     15 O2         -4.8702    5.2248   -0.4682 O.2       1 <0>        -0.8976
     16 O3         -6.1278    3.0857   -0.2537 O.2       1 <0>        -0.8947
     17 C12        -5.4456    4.3473    1.8672 C.ar      1 <0>        -0.7068
     18 C13        -6.1857    3.4652    2.6321 C.ar      1 <0>        -0.0352
     19 C14        -6.4438    3.7501    3.9600 C.ar      1 <0>        -0.0931
     20 C15        -5.9698    4.9215    4.5203 C.ar      1 <0>        -0.0613
     21 C16        -5.2337    5.8058    3.7541 C.ar      1 <0>        -0.0937
     22 C17        -4.9720    5.5189    2.4274 C.ar      1 <0>        -0.0364
     23 N2         -6.2500    5.2287    5.9409 N.pl3     1 <0>         0.5414
     24 O4         -5.8320    6.2606    6.4347 O.2       1 <0>        -0.3463
     25 O5         -6.8985    4.4495    6.6160 O.3       1 <0>        -0.3455
     26 H1          0.7274   -2.1054   -2.4398 H         1 <0>         0.0933
     27 H2          2.0907   -2.8143   -1.5415 H         1 <0>         0.0773
     28 H3          0.4427   -2.9047   -0.8751 H         1 <0>         0.0909
     29 H4          2.4892    0.8498   -1.0182 H         1 <0>         0.0689
     30 H5          3.2858   -0.6217   -1.6251 H         1 <0>         0.0883
     31 H6          1.9224    0.0872   -2.5234 H         1 <0>         0.0899
     32 H7          1.2382   -1.8343    1.2376 H         1 <0>         0.0877
     33 H8          2.8863   -1.7438    0.5712 H         1 <0>         0.0895
     34 H9          2.0896   -0.2723    1.1781 H         1 <0>         0.0681
     35 H10         0.7854    1.3365    0.4186 H         1 <0>         0.2386
     36 H11        -0.2703    3.5948   -0.1212 H         1 <0>         0.1385
     37 H12        -2.3916    4.8415   -0.0628 H         1 <0>         0.1501
     38 H13        -4.5452    1.1781    0.3057 H         1 <0>         0.1532
     39 H14        -2.4303   -0.0786    0.2354 H         1 <0>         0.1743
     40 H15        -6.5595    2.5519    2.1932 H         1 <0>         0.1669
     41 H16        -7.0185    3.0590    4.5587 H         1 <0>         0.1716
     42 H17        -4.8634    6.7210    4.1919 H         1 <0>         0.1710
     43 H18        -4.3973    6.2100    1.8287 H         1 <0>         0.1654
@<TRIPOS>BOND
     1    1    2 1
     2    1   26 1
     3    1   27 1
     4    1   28 1
     5    2    3 1
     6    2    4 1
     7    2    5 1
     8    3   29 1
     9    3   30 1
    10    3   31 1
    11    4   32 1
    12    4   33 1
    13    4   34 1
    14    5    6 2
    15    5    7 am
    16    7    8 1
    17    7   35 1
    18    8   13 ar
    19    8    9 ar
    20    9   10 ar
    21    9   36 1
    22   10   11 ar
    23   10   37 1
    24   11   12 ar
    25   11   14 1
    26   12   13 ar
    27   12   38 1
    28   13   39 1
    29   14   15 2
    30   14   16 2
    31   14   17 1
    32   17   22 ar
    33   17   18 ar
    34   18   19 ar
    35   18   40 1
    36   19   20 ar
    37   19   41 1
    38   20   21 ar
    39   20   23 1
    40   21   22 ar
    41   21   42 1
    42   22   43 1
    43   23   24 2
    44   23   25 1
@<TRIPOS>MOLECULE
ZINC03461798
   43    44     0     0     0
SMALL
USER_CHARGES

@<TRIPOS>ATOM
      1 C1          4.9079   15.3461    1.7890 C.3       1 <0>        -0.2380
      2 C2          4.6650   13.8756    1.5658 C.2       1 <0>         0.2994
      3 O1          3.6696   13.3500    2.0175 O.2       1 <0>        -0.3476
      4 N1          5.5538   13.1446    0.8643 N.am      1 <0>        -0.3310
      5 C3          5.3784   11.7618    0.7386 C.ar      1 <0>         0.0440
      6 C4          6.4842   10.9199    0.7198 C.ar      1 <0>        -0.1304
      7 C5          6.3167    9.5535    0.5959 C.ar      1 <0>        -0.1299
      8 C6          5.0499    9.0152    0.4951 C.ar      1 <0>        -0.0904
      9 C7          3.9327    9.8525    0.5080 C.ar      1 <0>        -0.0992
     10 C8          4.1022   11.2320    0.6332 C.ar      1 <0>        -0.0646
     11 C9          2.5755    9.2796    0.3957 C.2       1 <0>         0.3523
     12 O2          1.6048   10.0096    0.4122 O.2       1 <0>        -0.3564
     13 O3          2.4146    7.9476    0.2749 O.3       1 <0>        -0.2359
     14 C10         1.0528    7.4550    0.1692 C.3       1 <0>        -0.0248
     15 C11         1.0702    5.9535    0.0424 C.2       1 <0>         0.2975
     16 O4          2.1263    5.3571    0.0412 O.2       1 <0>        -0.3225
     17 N2         -0.0879    5.2732   -0.0698 N.am      1 <0>        -0.3269
     18 C12        -0.0793    3.8741   -0.0802 C.ar      1 <0>         0.0988
     19 C13         0.8633    3.1787    0.6669 C.ar      1 <0>        -0.1644
     20 C14         0.8718    1.7976    0.6565 C.ar      1 <0>        -0.0728
     21 C15        -0.0568    1.1038   -0.0962 C.ar      1 <0>        -0.2356
     22 C16        -0.9973    1.7931   -0.8485 C.ar      1 <0>         0.1129
     23 C17        -1.0123    3.1792   -0.8365 C.ar      1 <0>        -0.1939
     24 O5         -1.9059    1.1097   -1.5929 O.3       1 <0>        -0.2131
     25 C18        -1.8351   -0.3170   -1.5539 C.3       1 <0>        -0.0616
     26 H1          4.4591   15.9160    0.9754 H         1 <0>         0.1071
     27 H2          4.4595   15.6489    2.7352 H         1 <0>         0.1201
     28 H3          5.9806   15.5369    1.8176 H         1 <0>         0.0837
     29 H4          6.3151   13.5769    0.4466 H         1 <0>         0.2331
     30 H5          7.4779   11.3348    0.8028 H         1 <0>         0.1318
     31 H6          7.1799    8.9046    0.5820 H         1 <0>         0.1388
     32 H7          4.9230    7.9466    0.4025 H         1 <0>         0.1573
     33 H8          3.2417   11.8846    0.6475 H         1 <0>         0.1878
     34 H9          0.5769    7.8884   -0.7105 H         1 <0>         0.1096
     35 H10         0.4938    7.7379    1.0611 H         1 <0>         0.1123
     36 H11        -0.9274    5.7536   -0.1432 H         1 <0>         0.2341
     37 H12         1.5900    3.7185    1.2559 H         1 <0>         0.1603
     38 H13         1.6057    1.2587    1.2374 H         1 <0>         0.1350
     39 H14        -0.0477    0.0238   -0.1023 H         1 <0>         0.1346
     40 H15        -1.7461    3.7174   -1.4182 H         1 <0>         0.1428
     41 H16        -0.8585   -0.6422   -1.9127 H         1 <0>         0.0698
     42 H17        -1.9784   -0.6601   -0.5293 H         1 <0>         0.0682
     43 H18        -2.6142   -0.7370   -2.1901 H         1 <0>         0.1076
@<TRIPOS>BOND
     1    1    2 1
     2    1   26 1
     3    1   27 1
     4    1   28 1
     5    2    3 2
     6    2    4 am
     7    4    5 1
     8    4   29 1
     9    5   10 ar
    10    5    6 ar
    11    6    7 ar
    12    6   30 1
    13    7    8 ar
    14    7   31 1
    15    8    9 ar
    16    8   32 1
    17    9   10 ar
    18    9   11 1
    19   10   33 1
    20   11   12 2
    21   11   13 1
    22   13   14 1
    23   14   15 1
    24   14   34 1
    25   14   35 1
    26   15   16 2
    27   15   17 am
    28   17   18 1
    29   17   36 1
    30   18   23 ar
    31   18   19 ar
    32   19   20 ar
    33   19   37 1
    34   20   21 ar
    35   20   38 1
    36   21   22 ar
    37   21   39 1
    38   22   23 ar
    39   22   24 1
    40   23   40 1
    41   24   25 1
    42   25   41 1
    43   25   42 1
    44   25   43 1
@<TRIPOS>MOLECULE
ZINC03461841
   43    44     0     0     0
SMALL
USER_CHARGES

@<TRIPOS>ATOM
      1 C1          6.4215  -12.0578   -1.8709 C.3       1 <0>        -0.2354
      2 C2          6.1464  -10.5937   -1.6434 C.2       1 <0>         0.2994
      3 O1          5.1299  -10.0932   -2.0764 O.2       1 <0>        -0.3485
      4 N1          7.0297   -9.8404   -0.9588 N.am      1 <0>        -0.3303
      5 C3          6.8224   -8.4623   -0.8298 C.ar      1 <0>         0.0434
      6 C4          7.9071   -7.5931   -0.8320 C.ar      1 <0>        -0.1303
      7 C5          7.7079   -6.2313   -0.7050 C.ar      1 <0>        -0.1299
      8 C6          6.4302   -5.7246   -0.5805 C.ar      1 <0>        -0.0901
      9 C7          5.3342   -6.5895   -0.5722 C.ar      1 <0>        -0.0994
     10 C8          5.5356   -7.9644   -0.7005 C.ar      1 <0>        -0.0645
     11 C9          3.9655   -6.0505   -0.4343 C.2       1 <0>         0.3522
     12 O2          3.0131   -6.8044   -0.4325 O.2       1 <0>        -0.3570
     13 O3          3.7738   -4.7228   -0.3107 O.3       1 <0>        -0.2356
     14 C10         2.4024   -4.2642   -0.1793 C.3       1 <0>        -0.0249
     15 C11         2.3847   -2.7626   -0.0530 C.2       1 <0>         0.2962
     16 O4          3.4256   -2.1402   -0.0718 O.2       1 <0>        -0.3279
     17 N2          1.2124   -2.1114    0.0809 N.am      1 <0>        -0.3258
     18 C12         1.1864   -0.7106    0.0912 C.ar      1 <0>         0.0242
     19 C13         2.0971    0.0066   -0.6731 C.ar      1 <0>        -0.0891
     20 C14         2.0706    1.3872   -0.6629 C.ar      1 <0>        -0.1409
     21 C15         1.1344    2.0576    0.1107 C.ar      1 <0>         0.0831
     22 C16         0.2242    1.3417    0.8745 C.ar      1 <0>        -0.2050
     23 C17         0.2496   -0.0389    0.8652 C.ar      1 <0>        -0.1205
     24 O5          1.1092    3.4170    0.1207 O.3       1 <0>        -0.2114
     25 C18         0.1187    4.0415    0.9398 C.3       1 <0>        -0.0627
     26 H1          7.3740  -12.3240   -1.4126 H         1 <0>         0.0774
     27 H2          5.6244  -12.6512   -1.4231 H         1 <0>         0.1149
     28 H3          6.4652  -12.2571   -2.9417 H         1 <0>         0.1161
     29 H4          7.8092  -10.2534   -0.5554 H         1 <0>         0.2332
     30 H5          8.9090   -7.9833   -0.9337 H         1 <0>         0.1318
     31 H6          8.5548   -5.5611   -0.7074 H         1 <0>         0.1389
     32 H7          6.2785   -4.6595   -0.4856 H         1 <0>         0.1575
     33 H8          4.6915   -8.6382   -0.6986 H         1 <0>         0.1877
     34 H9          1.9541   -4.7089    0.7092 H         1 <0>         0.1085
     35 H10         1.8339   -4.5614   -1.0606 H         1 <0>         0.1116
     36 H11         0.3867   -2.6125    0.1702 H         1 <0>         0.2312
     37 H12         2.8258   -0.5152   -1.2757 H         1 <0>         0.1647
     38 H13         2.7818    1.9452   -1.2539 H         1 <0>         0.1487
     39 H14        -0.5042    1.8642    1.4768 H         1 <0>         0.1367
     40 H15        -0.4593   -0.5962    1.4596 H         1 <0>         0.1297
     41 H16        -0.8731    3.7326    0.6099 H         1 <0>         0.0664
     42 H17         0.2654    3.7437    1.9780 H         1 <0>         0.0679
     43 H18         0.2084    5.1246    0.8564 H         1 <0>         0.1079
@<TRIPOS>BOND
     1    1    2 1
     2    1   26 1
     3    1   27 1
     4    1   28 1
     5    2    3 2
     6    2    4 am
     7    4    5 1
     8    4   29 1
     9    5   10 ar
    10    5    6 ar
    11    6    7 ar
    12    6   30 1
    13    7    8 ar
    14    7   31 1
    15    8    9 ar
    16    8   32 1
    17    9   10 ar
    18    9   11 1
    19   10   33 1
    20   11   12 2
    21   11   13 1
    22   13   14 1
    23   14   15 1
    24   14   34 1
    25   14   35 1
    26   15   16 2
    27   15   17 am
    28   17   18 1
    29   17   36 1
    30   18   23 ar
    31   18   19 ar
    32   19   20 ar
    33   19   37 1
    34   20   21 ar
    35   20   38 1
    36   21   22 ar
    37   21   24 1
    38   22   23 ar
    39   22   39 1
    40   23   40 1
    41   24   25 1
    42   25   41 1
    43   25   42 1
    44   25   43 1
@<TRIPOS>MOLECULE
ZINC03462023
   39    40     0     0     0
SMALL
USER_CHARGES

@<TRIPOS>ATOM
      1 C1         -0.6973    1.5050   -2.1676 C.3       1 <0>        -0.2376
      2 C2         -0.6696   -0.0017   -2.1726 C.2       1 <0>         0.2995
      3 O1         -1.1977   -0.6150   -3.0760 O.2       1 <0>        -0.3476
      4 N1         -0.0580   -0.6678   -1.1732 N.am      1 <0>        -0.3306
      5 C3         -0.1175   -2.0652   -1.1245 C.ar      1 <0>         0.0445
      6 C4         -0.1784   -2.7158    0.1024 C.ar      1 <0>        -0.1309
      7 C5         -0.2430   -4.0954    0.1561 C.ar      1 <0>        -0.1294
      8 C6         -0.2362   -4.8371   -1.0078 C.ar      1 <0>        -0.0912
      9 C7         -0.1695   -4.1936   -2.2451 C.ar      1 <0>        -0.0991
     10 C8         -0.1100   -2.8004   -2.2992 C.ar      1 <0>        -0.0649
     11 C9         -0.1615   -4.9849   -3.4927 C.2       1 <0>         0.3524
     12 O2         -0.1031   -4.4229   -4.5680 O.2       1 <0>        -0.3551
     13 O3         -0.2190   -6.3296   -3.4378 O.3       1 <0>        -0.2369
     14 C10        -0.2072   -7.0421   -4.7029 C.3       1 <0>        -0.0240
     15 C11        -0.2771   -8.5252   -4.4448 C.2       1 <0>         0.2999
     16 O4         -0.3315   -8.9408   -3.3067 O.2       1 <0>        -0.3288
     17 N2         -0.2791   -9.3898   -5.4788 N.am      1 <0>        -0.3192
     18 C12        -0.4610  -10.7588   -5.2464 C.ar      1 <0>         0.0327
     19 C13        -1.1295  -11.1885   -4.1083 C.ar      1 <0>        -0.1148
     20 C14        -1.3125  -12.5393   -3.8845 C.ar      1 <0>        -0.1224
     21 C15        -0.8210  -13.4648   -4.7867 C.ar      1 <0>        -0.1233
     22 C16        -0.1495  -13.0421   -5.9191 C.ar      1 <0>        -0.1469
     23 C17         0.0325  -11.6911   -6.1524 C.ar      1 <0>         0.0579
     24 F1          0.6889  -11.2778   -7.2585 F         1 <0>        -0.1113
     25 H1         -1.5857    1.8503   -1.6389 H         1 <0>         0.1084
     26 H2          0.1937    1.8832   -1.6665 H         1 <0>         0.0831
     27 H3         -0.7200    1.8714   -3.1940 H         1 <0>         0.1196
     28 H4          0.4234   -0.1786   -0.4878 H         1 <0>         0.2333
     29 H5         -0.1792   -2.1410    1.0167 H         1 <0>         0.1319
     30 H6         -0.2946   -4.5949    1.1122 H         1 <0>         0.1387
     31 H7         -0.2820   -5.9151   -0.9615 H         1 <0>         0.1566
     32 H8         -0.0587   -2.2969   -3.2532 H         1 <0>         0.1889
     33 H9         -1.0662   -6.7364   -5.3002 H         1 <0>         0.1135
     34 H10         0.7112   -6.8100   -5.2421 H         1 <0>         0.1119
     35 H11        -0.1546   -9.0638   -6.3838 H         1 <0>         0.2412
     36 H12        -1.5101  -10.4670   -3.4004 H         1 <0>         0.1784
     37 H13        -1.8362  -12.8733   -3.0010 H         1 <0>         0.1391
     38 H14        -0.9616  -14.5203   -4.6063 H         1 <0>         0.1364
     39 H15         0.2335  -13.7675   -6.6216 H         1 <0>         0.1465
@<TRIPOS>BOND
     1    1    2 1
     2    1   25 1
     3    1   26 1
     4    1   27 1
     5    2    3 2
     6    2    4 am
     7    4    5 1
     8    4   28 1
     9    5   10 ar
    10    5    6 ar
    11    6    7 ar
    12    6   29 1
    13    7    8 ar
    14    7   30 1
    15    8    9 ar
    16    8   31 1
    17    9   10 ar
    18    9   11 1
    19   10   32 1
    20   11   12 2
    21   11   13 1
    22   13   14 1
    23   14   15 1
    24   14   33 1
    25   14   34 1
    26   15   16 2
    27   15   17 am
    28   17   18 1
    29   17   35 1
    30   18   23 ar
    31   18   19 ar
    32   19   20 ar
    33   19   36 1
    34   20   21 ar
    35   20   37 1
    36   21   22 ar
    37   21   38 1
    38   22   23 ar
    39   22   39 1
    40   23   24 1
@<TRIPOS>MOLECULE
ZINC03471000
   40    42     0     0     0
SMALL
USER_CHARGES

@<TRIPOS>ATOM
      1 C1          0.0021   -0.0041    0.0020 C.ar      1 <0>        -0.0493
      2 C2         -0.0166    1.3728    0.0096 C.ar      1 <0>        -0.1646
      3 C3          1.1764    2.0860    0.0020 C.ar      1 <0>         0.0975
      4 C4          2.3926    1.4133   -0.0132 C.ar      1 <0>        -0.1638
      5 C5          2.4200    0.0365   -0.0208 C.ar      1 <0>        -0.0934
      6 C6          1.2228   -0.6843   -0.0133 C.ar      1 <0>        -0.1388
      7 C7          1.2475   -2.1597   -0.0209 C.2       1 <0>         0.3646
      8 O1          0.2042   -2.7856   -0.0140 O.2       1 <0>        -0.3197
      9 N1          2.4257   -2.8139   -0.0357 N.am      1 <0>        -0.3272
     10 N2          2.4492   -4.2147   -0.0430 N.2       1 <0>         0.0056
     11 C8          3.5878   -4.8468   -0.0572 C.2       1 <0>        -0.0664
     12 C9          3.6123   -6.3101   -0.0648 C.2       1 <0>        -0.2619
     13 C10         4.7024   -7.1638   -0.0797 C.2       1 <0>        -0.1243
     14 C11         4.4733   -8.5186   -0.0835 C.2       1 <0>        -0.2197
     15 C12         3.1840   -8.9750   -0.0726 C.2       1 <0>        -0.1736
     16 S1          2.2445   -7.4574   -0.0494 S.3       1 <0>         0.3912
     17 N3          2.7227  -10.2869   -0.0739 N.pl3     1 <0>        -0.1434
     18 C13         3.2535  -11.0309   -1.2254 C.3       1 <0>        -0.1114
     19 C14         2.7703  -12.4819   -1.1554 C.3       1 <0>        -0.0151
     20 O2          1.3410  -12.5015   -1.1104 O.3       1 <0>        -0.2771
     21 C15         0.7901  -11.7868   -0.0009 C.3       1 <0>        -0.0125
     22 C16         1.2532  -10.3287   -0.0592 C.3       1 <0>        -0.1236
     23 O3          1.1537    3.4430    0.0091 O.3       1 <0>        -0.2911
     24 H1         -0.9253   -0.5575    0.0082 H         1 <0>         0.1627
     25 H2         -0.9596    1.8993    0.0169 H         1 <0>         0.1483
     26 H3          3.3173    1.9711   -0.0193 H         1 <0>         0.1437
     27 H4          3.3654   -0.4854   -0.0323 H         1 <0>         0.1254
     28 H5          3.2575   -2.3148   -0.0413 H         1 <0>         0.2080
     29 H6          4.5138   -4.2912   -0.0634 H         1 <0>         0.1242
     30 H7          5.7095   -6.7738   -0.0878 H         1 <0>         0.1411
     31 H8          5.2999   -9.2135   -0.0954 H         1 <0>         0.1463
     32 H9          2.8990  -10.5734   -2.1491 H         1 <0>         0.0836
     33 H10         4.3430  -11.0085   -1.2023 H         1 <0>         0.1074
     34 H11         3.1692  -12.9554   -0.2583 H         1 <0>         0.0810
     35 H12         3.1142  -13.0237   -2.0365 H         1 <0>         0.1141
     36 H13         1.1314  -12.2401    0.9298 H         1 <0>         0.0818
     37 H14        -0.2983  -11.8251   -0.0466 H         1 <0>         0.1159
     38 H15         0.8826   -9.7938    0.8152 H         1 <0>         0.1144
     39 H16         0.8667   -9.8600   -0.9643 H         1 <0>         0.0864
     40 H17         1.1553    3.8319    0.8944 H         1 <0>         0.2335
@<TRIPOS>BOND
     1    1    6 ar
     2    1    2 ar
     3    1   24 1
     4    2    3 ar
     5    2   25 1
     6    3    4 ar
     7    3   23 1
     8    4    5 ar
     9    4   26 1
    10    5    6 ar
    11    5   27 1
    12    6    7 1
    13    7    8 2
    14    7    9 am
    15    9   10 1
    16    9   28 1
    17   10   11 2
    18   11   12 1
    19   11   29 1
    20   12   16 1
    21   12   13 2
    22   13   14 1
    23   13   30 1
    24   14   15 2
    25   14   31 1
    26   15   16 1
    27   15   17 1
    28   17   22 1
    29   17   18 1
    30   18   19 1
    31   18   32 1
    32   18   33 1
    33   19   20 1
    34   19   34 1
    35   19   35 1
    36   20   21 1
    37   21   22 1
    38   21   36 1
    39   21   37 1
    40   22   38 1
    41   22   39 1
    42   23   40 1
@<TRIPOS>MOLECULE
ZINC03474356
   41    42     0     0     0
SMALL
USER_CHARGES

@<TRIPOS>ATOM
      1 C1          3.2596   -2.8743    3.0424 C.3       1 <0>        -0.1747
      2 C2          3.3374   -1.9141    1.8835 C.ar      1 <0>        -0.1029
      3 C3          3.9005   -2.3184    0.6873 C.ar      1 <0>        -0.0681
      4 C4          3.9723   -1.4376   -0.3754 C.ar      1 <0>        -0.1480
      5 C5          3.4809   -0.1522   -0.2423 C.ar      1 <0>         0.0190
      6 C6          2.9171    0.2517    0.9532 C.ar      1 <0>        -0.7647
      7 C7          2.8497   -0.6278    2.0178 C.ar      1 <0>        -0.0257
      8 S1          2.2908    1.8899    1.1229 S.o2      1 <0>         2.7631
      9 O1          3.3048    2.7638    0.6460 O.2       1 <0>        -0.9001
     10 O2          1.7575    1.9868    2.4364 O.2       1 <0>        -0.8980
     11 N1          1.0120    2.0356    0.0809 N.pl3     1 <0>        -0.7572
     12 N2         -0.0819    1.1670    0.1887 N.pl3     1 <0>        -0.2671
     13 C8         -1.3686    1.6822    0.3500 C.2       1 <0>         0.0740
     14 C9         -1.5712    2.9990    0.2952 C.2       1 <0>        -0.2855
     15 C10        -2.5094    0.7665    0.5820 C.ar      1 <0>         0.0113
     16 C11        -2.2847   -0.5955    0.7797 C.ar      1 <0>        -0.1362
     17 C12        -3.3512   -1.4429    1.0006 C.ar      1 <0>        -0.0631
     18 C13        -4.6420   -0.9456    1.0148 C.ar      1 <0>        -0.1132
     19 C14        -4.8715    0.4038    0.8141 C.ar      1 <0>        -0.0633
     20 C15        -3.8128    1.2619    0.5979 C.ar      1 <0>        -0.1220
     21 N3         -5.7820   -1.8608    1.2461 N.pl3     1 <0>         0.5485
     22 O3         -6.9194   -1.4254    1.2595 O.2       1 <0>        -0.3536
     23 O4         -5.5826   -3.0493    1.4231 O.3       1 <0>        -0.3555
     24 C16         3.5596    0.8083   -1.4008 C.3       1 <0>        -0.1939
     25 H1          4.1619   -2.7871    3.6477 H         1 <0>         0.0926
     26 H2          2.3883   -2.6372    3.6528 H         1 <0>         0.0867
     27 H3          3.1724   -3.8931    2.6649 H         1 <0>         0.0832
     28 H4          4.2847   -3.3224    0.5835 H         1 <0>         0.1368
     29 H5          4.4125   -1.7534   -1.3097 H         1 <0>         0.1389
     30 H6          2.4131   -0.3108    2.9534 H         1 <0>         0.1596
     31 H7          1.0204    2.7222   -0.6042 H         1 <0>         0.2498
     32 H8          0.0546    0.2075    0.1473 H         1 <0>         0.2529
     33 H9         -2.5671    3.3978    0.4201 H         1 <0>         0.1279
     34 H10        -0.7394    3.6668    0.1261 H         1 <0>         0.1268
     35 H11        -1.2778   -0.9857    0.7640 H         1 <0>         0.1419
     36 H12        -3.1781   -2.4972    1.1586 H         1 <0>         0.1667
     37 H13        -5.8815    0.7863    0.8263 H         1 <0>         0.1688
     38 H14        -3.9932    2.3152    0.4417 H         1 <0>         0.1572
     39 H15         4.5172    1.3284   -1.3772 H         1 <0>         0.1198
     40 H16         3.4685    0.2570   -2.3367 H         1 <0>         0.0910
     41 H17         2.7499    1.5343   -1.3266 H         1 <0>         0.0758
@<TRIPOS>BOND
     1    1    2 1
     2    1   25 1
     3    1   26 1
     4    1   27 1
     5    2    7 ar
     6    2    3 ar
     7    3    4 ar
     8    3   28 1
     9    4    5 ar
    10    4   29 1
    11    5    6 ar
    12    5   24 1
    13    6    7 ar
    14    6    8 1
    15    7   30 1
    16    8    9 2
    17    8   10 2
    18    8   11 1
    19   11   12 1
    20   11   31 1
    21   12   13 1
    22   12   32 1
    23   13   14 2
    24   13   15 1
    25   14   33 1
    26   14   34 1
    27   15   20 ar
    28   15   16 ar
    29   16   17 ar
    30   16   35 1
    31   17   18 ar
    32   17   36 1
    33   18   19 ar
    34   18   21 1
    35   19   20 ar
    36   19   37 1
    37   20   38 1
    38   21   22 2
    39   21   23 1
    40   24   39 1
    41   24   40 1
    42   24   41 1
@<TRIPOS>MOLECULE
ZINC03474387
   41    42     0     0     0
SMALL
USER_CHARGES

@<TRIPOS>ATOM
      1 C1         -8.1614    6.3881    3.2383 C.3       1 <0>        -0.1745
      2 C2         -8.6645    5.4293    2.1901 C.ar      1 <0>        -0.1037
      3 C3         -9.3562    5.9061    1.0920 C.ar      1 <0>        -0.0691
      4 C4         -9.8180    5.0267    0.1309 C.ar      1 <0>        -0.1489
      5 C5         -9.5882    3.6703    0.2676 C.ar      1 <0>         0.0184
      6 C6         -8.8959    3.1937    1.3648 C.ar      1 <0>        -0.7640
      7 C7         -8.4382    4.0729    2.3286 C.ar      1 <0>        -0.0243
      8 S1         -8.6031    1.4650    1.5389 S.o2      1 <0>         2.7633
      9 O1         -9.8511    0.8185    1.3297 O.2       1 <0>        -0.9004
     10 O2         -7.8497    1.2988    2.7322 O.2       1 <0>        -0.8973
     11 N1         -7.6175    1.0070    0.2894 N.pl3     1 <0>        -0.7565
     12 N2         -6.3927    1.6570    0.0888 N.pl3     1 <0>        -0.2689
     13 C8         -5.2087    0.9194    0.0553 C.2       1 <0>         0.0782
     14 C9         -5.2510   -0.4122    0.1113 C.2       1 <0>        -0.2894
     15 C10        -3.9050    1.6155   -0.0425 C.ar      1 <0>        -0.0345
     16 C11        -3.8612    2.9929   -0.2567 C.ar      1 <0>        -0.0899
     17 C12        -2.6437    3.6358   -0.3473 C.ar      1 <0>        -0.1276
     18 C13        -1.4680    2.9175   -0.2209 C.ar      1 <0>        -0.0713
     19 C14        -1.5050    1.5505   -0.0136 C.ar      1 <0>        -0.1035
     20 C15        -2.7167    0.8963    0.0788 C.ar      1 <0>        -0.0570
     21 N3         -0.2426    0.7886    0.1154 N.pl3     1 <0>         0.5484
     22 O3         -0.2739   -0.4145    0.3030 O.2       1 <0>        -0.3510
     23 O4          0.8275    1.3638    0.0290 O.3       1 <0>        -0.3526
     24 C16       -10.0922    2.7114   -0.7801 C.3       1 <0>        -0.1949
     25 H1         -8.9244    6.5209    4.0053 H         1 <0>         0.0928
     26 H2         -7.2554    5.9871    3.6926 H         1 <0>         0.0867
     27 H3         -7.9406    7.3498    2.7750 H         1 <0>         0.0822
     28 H4         -9.5360    6.9657    0.9855 H         1 <0>         0.1361
     29 H5        -10.3586    5.3992   -0.7266 H         1 <0>         0.1385
     30 H6         -7.9011    3.7001    3.1882 H         1 <0>         0.1602
     31 H7         -7.8882    0.2888   -0.3037 H         1 <0>         0.2505
     32 H8         -6.3678    2.6198   -0.0267 H         1 <0>         0.2509
     33 H9         -6.2016   -0.9198    0.1826 H         1 <0>         0.1264
     34 H10        -4.3346   -0.9831    0.0853 H         1 <0>         0.1308
     35 H11        -4.7784    3.5553   -0.3511 H         1 <0>         0.1360
     36 H12        -2.6085    4.7024   -0.5129 H         1 <0>         0.1488
     37 H13        -0.5174    3.4257   -0.2884 H         1 <0>         0.1670
     38 H14        -2.7445   -0.1705    0.2445 H         1 <0>         0.1759
     39 H15       -11.1090    2.4057   -0.5338 H         1 <0>         0.1203
     40 H16       -10.0858    3.2010   -1.7539 H         1 <0>         0.0904
     41 H17        -9.4462    1.8339   -0.8104 H         1 <0>         0.0776
@<TRIPOS>BOND
     1    1    2 1
     2    1   25 1
     3    1   26 1
     4    1   27 1
     5    2    7 ar
     6    2    3 ar
     7    3    4 ar
     8    3   28 1
     9    4    5 ar
    10    4   29 1
    11    5    6 ar
    12    5   24 1
    13    6    7 ar
    14    6    8 1
    15    7   30 1
    16    8    9 2
    17    8   10 2
    18    8   11 1
    19   11   12 1
    20   11   31 1
    21   12   13 1
    22   12   32 1
    23   13   14 2
    24   13   15 1
    25   14   33 1
    26   14   34 1
    27   15   20 ar
    28   15   16 ar
    29   16   17 ar
    30   16   35 1
    31   17   18 ar
    32   17   36 1
    33   18   19 ar
    34   18   37 1
    35   19   20 ar
    36   19   21 1
    37   20   38 1
    38   21   22 2
    39   21   23 1
    40   24   39 1
    41   24   40 1
    42   24   41 1
@<TRIPOS>MOLECULE
ZINC03475056
   40    42     0     0     0
SMALL
USER_CHARGES

@<TRIPOS>ATOM
      1 C1         12.4367   -3.5444    6.2546 C.3       1 <0>        -0.1940
      2 C2         11.0755   -3.4458    5.6154 C.ar      1 <0>        -0.0047
      3 C3         10.5575   -2.2060    5.2854 C.ar      1 <0>        -0.1335
      4 C4          9.3141   -2.1097    4.6952 C.ar      1 <0>        -0.0771
      5 C5          8.5741   -3.2645    4.4423 C.ar      1 <0>        -0.0515
      6 C6          9.1015   -4.5110    4.7771 C.ar      1 <0>        -0.0497
      7 C7         10.3490   -4.5950    5.3614 C.ar      1 <0>        -0.1131
      8 N1         10.9103   -5.9175    5.7175 N.pl3     1 <0>         0.5507
      9 O1         10.2272   -6.9196    5.6041 O.2       1 <0>        -0.3545
     10 O2         12.0553   -6.0038    6.1238 O.3       1 <0>        -0.3572
     11 C8          7.2358   -3.1675    3.8151 C.2       1 <0>         0.0976
     12 C9          6.5329   -4.2737    3.5695 C.2       1 <0>        -0.3346
     13 N2          6.7107   -1.9187    3.4811 N.pl3     1 <0>        -0.2705
     14 N3          5.4448   -1.8269    2.8878 N.am      1 <0>        -0.2669
     15 C10         4.9376   -0.6206    2.5653 C.2       1 <0>         0.3511
     16 O3          5.5786    0.3880    2.7892 O.2       1 <0>        -0.3733
     17 C11         3.6039   -0.5240    1.9401 C.ar      1 <0>        -0.1226
     18 C12         2.8660   -1.6818    1.6820 C.ar      1 <0>        -0.1015
     19 C13         1.6214   -1.5897    1.0985 C.ar      1 <0>        -0.1220
     20 C14         1.0957   -0.3483    0.7656 C.ar      1 <0>         0.0321
     21 C15         1.8275    0.8120    1.0214 C.ar      1 <0>        -0.0050
     22 C16         3.0762    0.7257    1.6055 C.ar      1 <0>        -0.0501
     23 O4          1.0970    1.8879    0.6056 O.3       1 <0>        -0.2010
     24 C17        -0.2530    1.4059    0.4705 C.3       1 <0>         0.1062
     25 O5         -0.0897    0.0032    0.1906 O.3       1 <0>        -0.2031
     26 H1         13.1828   -3.7583    5.4893 H         1 <0>         0.1092
     27 H2         12.6779   -2.6004    6.7433 H         1 <0>         0.0819
     28 H3         12.4340   -4.3457    6.9935 H         1 <0>         0.1281
     29 H4         11.1296   -1.3122    5.4858 H         1 <0>         0.1521
     30 H5          8.9127   -1.1418    4.4337 H         1 <0>         0.1439
     31 H6          8.5351   -5.4090    4.5793 H         1 <0>         0.1736
     32 H7          6.9394   -5.2403    3.8279 H         1 <0>         0.1347
     33 H8          5.5571   -4.2030    3.1121 H         1 <0>         0.1107
     34 H9          7.2220   -1.1140    3.6598 H         1 <0>         0.2736
     35 H10         4.9335   -2.6316    2.7091 H         1 <0>         0.2568
     36 H11         3.2713   -2.6491    1.9397 H         1 <0>         0.1331
     37 H12         1.0527   -2.4860    0.8995 H         1 <0>         0.1498
     38 H13         3.6439    1.6229    1.8032 H         1 <0>         0.1723
     39 H14        -0.7569    1.9053   -0.3570 H         1 <0>         0.1357
     40 H15        -0.8055    1.5492    1.3991 H         1 <0>         0.0927
@<TRIPOS>BOND
     1    1    2 1
     2    1   26 1
     3    1   27 1
     4    1   28 1
     5    2    7 ar
     6    2    3 ar
     7    3    4 ar
     8    3   29 1
     9    4    5 ar
    10    4   30 1
    11    5    6 ar
    12    5   11 1
    13    6    7 ar
    14    6   31 1
    15    7    8 1
    16    8    9 2
    17    8   10 1
    18   11   12 2
    19   11   13 1
    20   12   32 1
    21   12   33 1
    22   13   14 1
    23   13   34 1
    24   14   15 am
    25   14   35 1
    26   15   16 2
    27   15   17 1
    28   17   22 ar
    29   17   18 ar
    30   18   19 ar
    31   18   36 1
    32   19   20 ar
    33   19   37 1
    34   20   25 1
    35   20   21 ar
    36   21   22 ar
    37   21   23 1
    38   22   38 1
    39   23   24 1
    40   24   25 1
    41   24   39 1
    42   24   40 1
@<TRIPOS>MOLECULE
ZINC03475713
   43    45     0     0     0
SMALL
USER_CHARGES

@<TRIPOS>ATOM
      1 C1          1.1892   -2.1893    0.0002 C.3       1 <0>        -0.1943
      2 C2          1.1925   -0.6823   -0.0028 C.ar      1 <0>        -0.0036
      3 C3          0.0268    0.0098    0.2737 C.ar      1 <0>        -0.1330
      4 C4          0.0235    1.3895    0.2720 C.ar      1 <0>        -0.0771
      5 C5          1.1985    2.0864   -0.0088 C.ar      1 <0>        -0.0528
      6 C6          2.3699    1.3834   -0.2871 C.ar      1 <0>        -0.0492
      7 C7          2.3608    0.0033   -0.2824 C.ar      1 <0>        -0.1130
      8 N1          3.6035   -0.7446   -0.5777 N.pl3     1 <0>         0.5507
      9 O1          4.6570   -0.1475   -0.7087 O.2       1 <0>        -0.3539
     10 O2          3.5726   -1.9570   -0.6896 O.3       1 <0>        -0.3563
     11 C8          1.2015    3.5676   -0.0127 C.2       1 <0>         0.0973
     12 C9          2.3263    4.2313   -0.2815 C.2       1 <0>        -0.3323
     13 N2          0.0273    4.2684    0.2648 N.pl3     1 <0>        -0.2705
     14 N3          0.0302    5.6694    0.2611 N.am      1 <0>        -0.2723
     15 C10        -1.1040    6.3463    0.5292 C.2       1 <0>         0.2995
     16 O3         -2.1271    5.7427    0.7737 O.2       1 <0>        -0.3328
     17 C11        -1.1009    7.8533    0.5252 C.3       1 <0>        -0.0160
     18 H1         -0.3332    8.2211    1.2060 H         1 <0>         0.1184
     19 C12        -0.8230    8.3665   -0.8941 C.3       1 <0>        -0.0430
     20 O4         -0.8414    9.7980   -0.8644 O.3       1 <0>        -0.2012
     21 C13        -1.8738   10.3831   -0.1979 C.ar      1 <0>         0.0110
     22 C14        -2.1567   11.7224   -0.4219 C.ar      1 <0>        -0.1194
     23 C15        -3.1978   12.3322    0.2520 C.ar      1 <0>        -0.1272
     24 C16        -3.9599   11.6094    1.1511 C.ar      1 <0>        -0.1265
     25 C17        -3.6840   10.2744    1.3780 C.ar      1 <0>        -0.1156
     26 C18        -2.6413    9.6560    0.7040 C.ar      1 <0>         0.0176
     27 O5         -2.3834    8.3398    0.9357 O.3       1 <0>        -0.1699
     28 H2          1.0725   -2.5545   -1.0201 H         1 <0>         0.1096
     29 H3          2.1306   -2.5539    0.4112 H         1 <0>         0.1286
     30 H4          0.3620   -2.5496    0.6119 H         1 <0>         0.0824
     31 H5         -0.8824   -0.5310    0.4910 H         1 <0>         0.1527
     32 H6         -0.8881    1.9287    0.4832 H         1 <0>         0.1434
     33 H7          3.2826    1.9177   -0.5059 H         1 <0>         0.1736
     34 H8          2.3286    5.3113   -0.2844 H         1 <0>         0.1106
     35 H9          3.2352    3.6889   -0.4963 H         1 <0>         0.1364
     36 H10        -0.7910    3.7856    0.4604 H         1 <0>         0.2750
     37 H11         0.8484    6.1522    0.0656 H         1 <0>         0.2550
     38 H12         0.1549    8.0177   -1.2262 H         1 <0>         0.1178
     39 H13        -1.5938    8.0033   -1.5739 H         1 <0>         0.1092
     40 H14        -1.5631   12.2891   -1.1239 H         1 <0>         0.1459
     41 H15        -3.4167   13.3750    0.0758 H         1 <0>         0.1372
     42 H16        -4.7722   12.0890    1.6770 H         1 <0>         0.1379
     43 H17        -4.2807    9.7122    2.0810 H         1 <0>         0.1500
@<TRIPOS>BOND
     1    1    2 1
     2    1   28 1
     3    1   29 1
     4    1   30 1
     5    2    7 ar
     6    2    3 ar
     7    3    4 ar
     8    3   31 1
     9    4    5 ar
    10    4   32 1
    11    5    6 ar
    12    5   11 1
    13    6    7 ar
    14    6   33 1
    15    7    8 1
    16    8    9 2
    17    8   10 1
    18   11   12 2
    19   11   13 1
    20   12   34 1
    21   12   35 1
    22   13   14 1
    23   13   36 1
    24   14   15 am
    25   14   37 1
    26   15   16 2
    27   15   17 1
    28   17   18 1
    29   17   27 1
    30   17   19 1
    31   19   20 1
    32   19   38 1
    33   19   39 1
    34   20   21 1
    35   21   26 ar
    36   21   22 ar
    37   22   23 ar
    38   22   40 1
    39   23   24 ar
    40   23   41 1
    41   24   25 ar
    42   24   42 1
    43   25   26 ar
    44   25   43 1
    45   26   27 1
@<TRIPOS>MOLECULE
ZINC03475717
   43    45     0     0     0
SMALL
USER_CHARGES

@<TRIPOS>ATOM
      1 C1         -2.9583   15.9094    1.2537 C.3       1 <0>        -0.1944
      2 C2         -3.0382   14.4467    0.8999 C.ar      1 <0>        -0.0036
      3 C3         -1.9108   13.6510    1.0000 C.ar      1 <0>        -0.1330
      4 C4         -1.9792   12.3099    0.6831 C.ar      1 <0>        -0.0771
      5 C5         -3.1852   11.7592    0.2505 C.ar      1 <0>        -0.0528
      6 C6         -4.3180   12.5661    0.1516 C.ar      1 <0>        -0.0492
      7 C7         -4.2385   13.9050    0.4770 C.ar      1 <0>        -0.1129
      8 N1         -5.4401   14.7630    0.3726 N.pl3     1 <0>         0.5506
      9 O1         -6.4661   14.3181   -0.1101 O.2       1 <0>        -0.3539
     10 O2         -5.4029   15.9140    0.7694 O.3       1 <0>        -0.3563
     11 C8         -3.2639   10.3215   -0.0967 C.2       1 <0>         0.0973
     12 C9         -4.4197    9.7964   -0.5048 C.2       1 <0>        -0.3323
     13 N2         -2.1286    9.5164    0.0032 N.pl3     1 <0>        -0.2705
     14 N3         -2.2030    8.1565   -0.3252 N.am      1 <0>        -0.2723
     15 C10        -1.1064    7.3789   -0.2287 C.2       1 <0>         0.2995
     16 O3         -0.0552    7.8565    0.1425 O.2       1 <0>        -0.3328
     17 C11        -1.1865    5.9161   -0.5819 C.3       1 <0>        -0.0159
     18 H1         -1.5683    5.8028   -1.5966 H         1 <0>         0.1187
     19 C12        -2.1160    5.1957    0.4042 C.3       1 <0>        -0.0431
     20 O4         -2.1582    3.8094    0.0488 O.3       1 <0>        -0.2011
     21 C13        -0.9650    3.2080   -0.2102 C.ar      1 <0>         0.0108
     22 C14        -0.8858    1.8232   -0.2072 C.ar      1 <0>        -0.1193
     23 C15         0.3193    1.1982   -0.4657 C.ar      1 <0>        -0.1272
     24 C16         1.4464    1.9508   -0.7391 C.ar      1 <0>        -0.1264
     25 C17         1.3733    3.3308   -0.7480 C.ar      1 <0>        -0.1156
     26 C18         0.1686    3.9646   -0.4821 C.ar      1 <0>         0.0177
     27 O5          0.1138    5.3245   -0.4864 O.3       1 <0>        -0.1699
     28 H2         -3.3002   16.0546    2.2784 H         1 <0>         0.1096
     29 H3         -1.9265   16.2492    1.1633 H         1 <0>         0.0824
     30 H4         -3.5903   16.4824    0.5752 H         1 <0>         0.1286
     31 H5         -0.9764   14.0796    1.3312 H         1 <0>         0.1527
     32 H6         -1.0995   11.6888    0.7658 H         1 <0>         0.1434
     33 H7         -5.2557   12.1442   -0.1785 H         1 <0>         0.1737
     34 H8         -5.2984   10.4195   -0.5821 H         1 <0>         0.1364
     35 H9         -4.4771    8.7481   -0.7579 H         1 <0>         0.1106
     36 H10        -1.2878    9.8984    0.3000 H         1 <0>         0.2750
     37 H11        -3.0438    7.7746   -0.6220 H         1 <0>         0.2550
     38 H12        -3.1176    5.6215    0.3434 H         1 <0>         0.1176
     39 H13        -1.7317    5.3037    1.4185 H         1 <0>         0.1092
     40 H14        -1.7657    1.2330    0.0018 H         1 <0>         0.1459
     41 H15         0.3798    0.1199   -0.4586 H         1 <0>         0.1371
     42 H16         2.3856    1.4593   -0.9458 H         1 <0>         0.1379
     43 H17         2.2553    3.9163   -0.9618 H         1 <0>         0.1500
@<TRIPOS>BOND
     1    1    2 1
     2    1   28 1
     3    1   29 1
     4    1   30 1
     5    2    7 ar
     6    2    3 ar
     7    3    4 ar
     8    3   31 1
     9    4    5 ar
    10    4   32 1
    11    5    6 ar
    12    5   11 1
    13    6    7 ar
    14    6   33 1
    15    7    8 1
    16    8    9 2
    17    8   10 1
    18   11   12 2
    19   11   13 1
    20   12   34 1
    21   12   35 1
    22   13   14 1
    23   13   36 1
    24   14   15 am
    25   14   37 1
    26   15   16 2
    27   15   17 1
    28   17   18 1
    29   17   27 1
    30   17   19 1
    31   19   20 1
    32   19   38 1
    33   19   39 1
    34   20   21 1
    35   21   26 ar
    36   21   22 ar
    37   22   23 ar
    38   22   40 1
    39   23   24 ar
    40   23   41 1
    41   24   25 ar
    42   24   42 1
    43   25   26 ar
    44   25   43 1
    45   26   27 1
@<TRIPOS>MOLECULE
ZINC03476479
   39    41     0     0     0
SMALL
USER_CHARGES

@<TRIPOS>ATOM
      1 C1         -3.6735    2.0654    0.0032 C.ar      1 <0>        -0.1528
      2 C2         -3.6159    3.4531    0.0088 C.ar      1 <0>        -0.0903
      3 C3         -2.4054    4.1088    0.0087 C.ar      1 <0>        -0.1245
      4 C4         -1.2195    3.3714    0.0034 C.ar      1 <0>         0.0566
      5 C5         -1.2819    1.9604   -0.0084 C.ar      1 <0>        -0.1853
      6 C6         -2.5174    1.3162   -0.0020 C.ar      1 <0>        -0.0491
      7 C7         -0.0152    1.2135   -0.0081 C.2       1 <0>         0.3448
      8 O1          0.0012   -0.0036   -0.0131 O.2       1 <0>        -0.3409
      9 N1          1.1317    1.9321   -0.0077 N.am      1 <0>        -0.3093
     10 H1          2.0127    1.4590   -0.0112 H         1 <0>         0.2551
     11 C8          1.0970    3.2902   -0.0026 C.2       1 <0>         0.1277
     12 N2         -0.0053    3.9763    0.0027 N.2       1 <0>        -0.2387
     13 C9          2.4049    4.0388   -0.0035 C.3       1 <0>        -0.1082
     14 C10         2.1311    5.5440    0.0029 C.3       1 <0>        -0.1680
     15 C11         3.4390    6.2926    0.0020 C.2       1 <0>         0.2989
     16 O2          4.4871    5.6821   -0.0033 O.2       1 <0>        -0.3541
     17 N3          3.4442    7.6403    0.0070 N.am      1 <0>        -0.3262
     18 C12         4.6558    8.3355    0.1039 C.ar      1 <0>         0.0416
     19 C13         4.7154    9.5351    0.8011 C.ar      1 <0>        -0.0982
     20 C14         5.9126   10.2160    0.9007 C.ar      1 <0>        -0.1614
     21 C15         7.0508    9.7095    0.2956 C.ar      1 <0>         0.1468
     22 C16         6.9923    8.5166   -0.4048 C.ar      1 <0>        -0.1391
     23 C17         5.7980    7.8293   -0.5016 C.ar      1 <0>        -0.0514
     24 N4          8.2104    7.9771   -1.0497 N.pl3     1 <0>         0.5527
     25 O3          8.1595    6.9275   -1.6656 O.2       1 <0>        -0.3474
     26 O4          9.2637    8.5828   -0.9646 O.3       1 <0>        -0.3374
     27 F1          8.2198   10.3802    0.3891 F         1 <0>        -0.0663
     28 H2         -4.6329    1.5695    0.0034 H         1 <0>         0.1376
     29 H3         -4.5321    4.0249    0.0129 H         1 <0>         0.1350
     30 H4         -2.3731    5.1883    0.0131 H         1 <0>         0.1453
     31 H5         -2.5684    0.2374   -0.0063 H         1 <0>         0.1557
     32 H6          2.9780    3.7699    0.8839 H         1 <0>         0.1224
     33 H7          2.9729    3.7766   -0.8961 H         1 <0>         0.1226
     34 H8          1.5580    5.8129   -0.8844 H         1 <0>         0.1244
     35 H9          1.5630    5.8062    0.8955 H         1 <0>         0.1250
     36 H10         2.6085    8.1287   -0.0565 H         1 <0>         0.2414
     37 H11         3.8269    9.9330    1.2688 H         1 <0>         0.1477
     38 H12         5.9604   11.1465    1.4468 H         1 <0>         0.1637
     39 H13         5.7527    6.8990   -1.0482 H         1 <0>         0.2035
@<TRIPOS>BOND
     1    1    6 ar
     2    1    2 ar
     3    1   28 1
     4    2    3 ar
     5    2   29 1
     6    3    4 ar
     7    3   30 1
     8    4   12 1
     9    4    5 ar
    10    5    6 ar
    11    5    7 1
    12    6   31 1
    13    7    8 2
    14    7    9 am
    15    9   10 1
    16    9   11 1
    17   11   12 2
    18   11   13 1
    19   13   14 1
    20   13   32 1
    21   13   33 1
    22   14   15 1
    23   14   34 1
    24   14   35 1
    25   15   16 2
    26   15   17 am
    27   17   18 1
    28   17   36 1
    29   18   23 ar
    30   18   19 ar
    31   19   20 ar
    32   19   37 1
    33   20   21 ar
    34   20   38 1
    35   21   22 ar
    36   21   27 1
    37   22   23 ar
    38   22   24 1
    39   23   39 1
    40   24   25 2
    41   24   26 1
@<TRIPOS>MOLECULE
ZINC03476479
   39    41     0     0     0
SMALL
USER_CHARGES

@<TRIPOS>ATOM
      1 C1         -3.6735    2.0654    0.0046 C.ar      1 <0>        -0.1603
      2 C2         -3.6159    3.4531    0.0101 C.ar      1 <0>        -0.0745
      3 C3         -2.4054    4.1088    0.0097 C.ar      1 <0>        -0.1847
      4 C4         -1.2195    3.3714    0.0041 C.ar      1 <0>         0.0588
      5 C5         -1.2819    1.9604   -0.0077 C.ar      1 <0>        -0.1897
      6 C6         -2.5174    1.3162   -0.0010 C.ar      1 <0>        -0.0363
      7 C7         -0.0152    1.2137   -0.0273 C.2       1 <0>         0.3155
      8 O1          0.0012   -0.0034   -0.0334 O.2       1 <0>        -0.3038
      9 N1          1.1314    1.9324   -0.0434 N.2       1 <0>        -0.2944
     10 H1          0.0417    4.9753   -0.0110 H         1 <0>         0.2416
     11 C8          1.0967    3.2905   -0.0369 C.2       1 <0>         0.1479
     12 N2         -0.0055    3.9765   -0.0146 N.pl3     1 <0>        -0.2242
     13 C9          2.4043    4.0393   -0.0567 C.3       1 <0>        -0.1112
     14 C10         2.1305    5.5444   -0.0453 C.3       1 <0>        -0.2109
     15 C11         3.4381    6.2932   -0.0650 C.2       1 <0>         0.3061
     16 O2          4.4861    5.6828   -0.0862 O.2       1 <0>        -0.3301
     17 N3          3.4432    7.6409   -0.0592 N.am      1 <0>        -0.3271
     18 C12         4.6561    8.3362    0.0202 C.ar      1 <0>         0.0374
     19 C13         4.7258    9.5353    0.7172 C.ar      1 <0>        -0.0969
     20 C14         5.9243   10.2163    0.7995 C.ar      1 <0>        -0.1611
     21 C15         7.0535    9.7104    0.1773 C.ar      1 <0>         0.1506
     22 C16         6.9847    8.5179   -0.5229 C.ar      1 <0>        -0.1383
     23 C17         5.7892    7.8305   -0.6025 C.ar      1 <0>        -0.0493
     24 N4          8.1932    7.9790   -1.1861 N.pl3     1 <0>         0.5521
     25 O3          8.1333    6.9298   -1.8019 O.2       1 <0>        -0.3434
     26 O4          9.2476    8.5848   -1.1162 O.3       1 <0>        -0.3353
     27 F1          8.2236   10.3812    0.2539 F         1 <0>        -0.0641
     28 H2         -4.6329    1.5695    0.0051 H         1 <0>         0.1396
     29 H3         -4.5321    4.0249    0.0145 H         1 <0>         0.1358
     30 H4         -2.3731    5.1883    0.0141 H         1 <0>         0.1285
     31 H5         -2.5684    0.2374   -0.0052 H         1 <0>         0.1641
     32 H6          2.9905    3.7699    0.8219 H         1 <0>         0.1477
     33 H7          2.9591    3.7777   -0.9578 H         1 <0>         0.1479
     34 H8          1.5443    5.8138   -0.9238 H         1 <0>         0.1043
     35 H9          1.5756    5.8060    0.8558 H         1 <0>         0.1049
     36 H10         2.6066    8.1292   -0.1100 H         1 <0>         0.2371
     37 H11         3.8443    9.9328    1.1983 H         1 <0>         0.1465
     38 H12         5.9801   11.1465    1.3455 H         1 <0>         0.1649
     39 H13         5.7360    6.9006   -1.1490 H         1 <0>         0.2040
@<TRIPOS>BOND
     1    1    6 ar
     2    1    2 ar
     3    1   28 1
     4    2    3 ar
     5    2   29 1
     6    3    4 ar
     7    3   30 1
     8    4    5 ar
     9    4   12 1
    10    5    6 ar
    11    5    7 1
    12    6   31 1
    13    7    9 1
    14    7    8 2
    15    9   11 2
    16   10   12 1
    17   11   13 1
    18   11   12 1
    19   13   14 1
    20   13   32 1
    21   13   33 1
    22   14   15 1
    23   14   34 1
    24   14   35 1
    25   15   16 2
    26   15   17 am
    27   17   18 1
    28   17   36 1
    29   18   23 ar
    30   18   19 ar
    31   19   20 ar
    32   19   37 1
    33   20   21 ar
    34   20   38 1
    35   21   22 ar
    36   21   27 1
    37   22   23 ar
    38   22   24 1
    39   23   39 1
    40   24   25 2
    41   24   26 1
@<TRIPOS>MOLECULE
ZINC03476479
   39    41     0     0     0
SMALL
USER_CHARGES

@<TRIPOS>ATOM
      1 C1         -3.6721    2.0615   -0.1110 C.ar      1 <0>        -0.1342
      2 C2         -3.6153    3.4491   -0.1283 C.ar      1 <0>        -0.0947
      3 C3         -2.4055    4.1058   -0.1061 C.ar      1 <0>        -0.1139
      4 C4         -1.2193    3.3694   -0.0789 C.ar      1 <0>         0.0928
      5 C5         -1.2807    1.9583   -0.0675 C.ar      1 <0>        -0.2525
      6 C6         -2.5154    1.3130   -0.0953 C.ar      1 <0>        -0.1041
      7 C7         -0.0151    1.2137    0.0060 C.ar      1 <0>         0.2380
      8 O1          0.0014   -0.0034    0.0121 O.3       1 <0>        -0.1581
      9 N1          1.1318    1.9324    0.0056 N.ar      1 <0>        -0.2807
     10 H1         -0.9368   -0.3495    0.0112 H         1 <0>         0.2718
     11 C8          1.0969    3.2900   -0.0382 C.ar      1 <0>         0.1171
     12 N2         -0.0057    3.9752   -0.0631 N.ar      1 <0>        -0.2696
     13 C9          2.4047    4.0385   -0.0588 C.3       1 <0>        -0.0792
     14 C10         2.1309    5.5437   -0.0699 C.3       1 <0>        -0.1750
     15 C11         3.4387    6.2921   -0.0906 C.2       1 <0>         0.2981
     16 O2          4.4868    5.6815   -0.0960 O.2       1 <0>        -0.3491
     17 N3          3.4439    7.6398   -0.1032 N.am      1 <0>        -0.3295
     18 C12         4.6562    8.3361   -0.0246 C.ar      1 <0>         0.0448
     19 C13         4.7211    9.5447    0.6564 C.ar      1 <0>        -0.1006
     20 C14         5.9190   10.2268    0.7379 C.ar      1 <0>        -0.1620
     21 C15         7.0525    9.7124    0.1308 C.ar      1 <0>         0.1440
     22 C16         6.9887    8.5104   -0.5536 C.ar      1 <0>        -0.1387
     23 C17         5.7937    7.8220   -0.6323 C.ar      1 <0>        -0.0515
     24 N4          8.2018    7.9625   -1.2007 N.pl3     1 <0>         0.5527
     25 O3          8.1463    6.9050   -1.8025 O.2       1 <0>        -0.3462
     26 O4          9.2557    8.5692   -1.1316 O.3       1 <0>        -0.3401
     27 F1          8.2222   10.3842    0.2066 F         1 <0>        -0.0680
     28 H2         -4.6310    1.5648   -0.1236 H         1 <0>         0.1362
     29 H3         -4.5316    4.0201   -0.1546 H         1 <0>         0.1377
     30 H4         -2.3739    5.1853   -0.1144 H         1 <0>         0.1507
     31 H5         -2.5653    0.2341   -0.0964 H         1 <0>         0.1173
     32 H6          2.9846    3.7811    0.8276 H         1 <0>         0.1272
     33 H7          2.9659    3.7647   -0.9523 H         1 <0>         0.1274
     34 H8          1.5510    5.8010   -0.9562 H         1 <0>         0.1193
     35 H9          1.5697    5.8175    0.8235 H         1 <0>         0.1191
     36 H10         2.6077    8.1273   -0.1666 H         1 <0>         0.2398
     37 H11         3.8362    9.9487    1.1257 H         1 <0>         0.1467
     38 H12         5.9709   11.1643    1.2715 H         1 <0>         0.1622
     39 H13         5.7443    6.8847   -1.1663 H         1 <0>         0.2050
@<TRIPOS>BOND
     1    1    6 ar
     2    1    2 ar
     3    1   28 1
     4    2    3 ar
     5    2   29 1
     6    3    4 ar
     7    3   30 1
     8    4    5 ar
     9    4   12 ar
    10    5    6 ar
    11    5    7 ar
    12    6   31 1
    13    7    9 ar
    14    7    8 1
    15    8   10 1
    16    9   11 ar
    17   11   13 1
    18   11   12 ar
    19   13   14 1
    20   13   32 1
    21   13   33 1
    22   14   15 1
    23   14   34 1
    24   14   35 1
    25   15   16 2
    26   15   17 am
    27   17   18 1
    28   17   36 1
    29   18   23 ar
    30   18   19 ar
    31   19   20 ar
    32   19   37 1
    33   20   21 ar
    34   20   38 1
    35   21   22 ar
    36   21   27 1
    37   22   23 ar
    38   22   24 1
    39   23   39 1
    40   24   25 2
    41   24   26 1
@<TRIPOS>MOLECULE
ZINC03476658
   37    38     0     0     0
SMALL
USER_CHARGES

@<TRIPOS>ATOM
      1 C1          1.3897    6.8352    9.7656 C.3       1 <0>        -0.1351
      2 C2          0.2259    5.9959    9.3049 C.2       1 <0>        -0.2570
      3 C3         -0.7758    5.4600   10.0505 C.2       1 <0>        -0.2032
      4 C4         -1.7503    4.7188    9.4299 C.2       1 <0>        -0.0836
      5 C5         -1.6463    4.5629    8.0565 C.2       1 <0>        -0.3501
      6 S1         -0.1556    5.4745    7.6961 S.3       1 <0>         0.3787
      7 C6         -2.5277    3.8337    7.1401 C.2       1 <0>         0.3954
      8 O1         -3.5101    3.2580    7.5697 O.2       1 <0>        -0.3617
      9 N1         -2.2503    3.8008    5.8216 N.am      1 <0>        -0.3853
     10 C7         -3.1312    3.0720    4.9056 C.3       1 <0>         0.0719
     11 H1         -3.5212    2.1852    5.4052 H         1 <0>         0.1313
     12 C8         -4.2936    3.9754    4.4891 C.3       1 <0>        -0.2238
     13 C9         -2.3533    2.6585    3.6830 C.ar      1 <0>        -0.0313
     14 C10        -2.5594    1.4122    3.1214 C.ar      1 <0>        -0.1403
     15 C11        -1.8458    1.0330    1.9999 C.ar      1 <0>        -0.0213
     16 C12        -0.9267    1.9002    1.4394 C.ar      1 <0>        -0.7624
     17 C13        -0.7172    3.1446    2.0038 C.ar      1 <0>        -0.0216
     18 C14        -1.4339    3.5256    3.1228 C.ar      1 <0>        -0.1533
     19 S2         -0.0172    1.4168    0.0098 S.o2      1 <0>         2.7619
     20 O2          0.0021   -0.0041    0.0020 O.2       1 <0>        -0.9149
     21 O3          1.1718    2.1948    0.0027 O.2       1 <0>        -0.9163
     22 N2         -0.8975    1.8855   -1.3122 N.pl3     1 <0>        -0.9310
     23 H2          2.2291    6.1864   10.0156 H         1 <0>         0.0967
     24 H3          1.6832    7.5182    8.9684 H         1 <0>         0.0898
     25 H4          1.0985    7.4081   10.6460 H         1 <0>         0.0963
     26 H5         -0.8050    5.6157   11.1188 H         1 <0>         0.1486
     27 H6         -2.5628    4.2768    9.9873 H         1 <0>         0.1650
     28 H7         -1.4673    4.2596    5.4791 H         1 <0>         0.2276
     29 H8         -4.9491    3.4331    3.8076 H         1 <0>         0.0844
     30 H9         -4.8563    4.2745    5.3734 H         1 <0>         0.1022
     31 H10        -3.9036    4.8622    3.9895 H         1 <0>         0.0773
     32 H11        -3.2776    0.7348    3.5590 H         1 <0>         0.1443
     33 H12        -2.0065    0.0592    1.5613 H         1 <0>         0.1562
     34 H13         0.0040    3.8204    1.5685 H         1 <0>         0.1547
     35 H14        -1.2731    4.4993    3.5613 H         1 <0>         0.1356
     36 H15        -1.7474    2.3376   -1.1935 H         1 <0>         0.2299
     37 H16        -0.5632    1.7079   -2.2053 H         1 <0>         0.2446
@<TRIPOS>BOND
     1    1    2 1
     2    1   23 1
     3    1   24 1
     4    1   25 1
     5    2    6 1
     6    2    3 2
     7    3    4 1
     8    3   26 1
     9    4    5 2
    10    4   27 1
    11    5    6 1
    12    5    7 1
    13    7    8 2
    14    7    9 am
    15    9   10 1
    16    9   28 1
    17   10   11 1
    18   10   12 1
    19   10   13 1
    20   12   29 1
    21   12   30 1
    22   12   31 1
    23   13   18 ar
    24   13   14 ar
    25   14   15 ar
    26   14   32 1
    27   15   16 ar
    28   15   33 1
    29   16   17 ar
    30   16   19 1
    31   17   18 ar
    32   17   34 1
    33   18   35 1
    34   19   20 2
    35   19   21 2
    36   19   22 1
    37   22   36 1
    38   22   37 1
@<TRIPOS>MOLECULE
ZINC03476660
   37    38     0     0     0
SMALL
USER_CHARGES

@<TRIPOS>ATOM
      1 C1         -5.2556   10.3784    4.3452 C.3       1 <0>        -0.1350
      2 C2         -5.2997    8.9415    4.7974 C.2       1 <0>        -0.2574
      3 C3         -6.1916    8.3463    5.6322 C.2       1 <0>        -0.2024
      4 C4         -6.0529    7.0113    5.9193 C.2       1 <0>        -0.0840
      5 C5         -4.9914    6.3451    5.3273 C.2       1 <0>        -0.3486
      6 S1         -4.2208    7.6489    4.3843 S.3       1 <0>         0.3749
      7 C6         -4.6000    4.9378    5.4493 C.2       1 <0>         0.3944
      8 O1         -5.2489    4.1844    6.1510 O.2       1 <0>        -0.3609
      9 N1         -3.5216    4.4781    4.7843 N.am      1 <0>        -0.3855
     10 C7         -3.1305    3.0716    4.9062 C.3       1 <0>         0.0719
     11 H1         -4.0233    2.4526    4.9956 H         1 <0>         0.1300
     12 C8         -2.2580    2.8908    6.1500 C.3       1 <0>        -0.2235
     13 C9         -2.3533    2.6585    3.6830 C.ar      1 <0>        -0.0335
     14 C10        -2.5590    1.4121    3.1216 C.ar      1 <0>        -0.1393
     15 C11        -1.8458    1.0330    1.9999 C.ar      1 <0>        -0.0196
     16 C12        -0.9267    1.9002    1.4394 C.ar      1 <0>        -0.7640
     17 C13        -0.7172    3.1446    2.0038 C.ar      1 <0>        -0.0262
     18 C14        -1.4342    3.5257    3.1225 C.ar      1 <0>        -0.1521
     19 S2         -0.0172    1.4168    0.0098 S.o2      1 <0>         2.7604
     20 O2          0.0021   -0.0041    0.0020 O.2       1 <0>        -0.9150
     21 O3          1.1718    2.1948    0.0027 O.2       1 <0>        -0.9117
     22 N2         -0.8975    1.8855   -1.3122 N.pl3     1 <0>        -0.9235
     23 H2         -4.6493   10.9595    5.0400 H         1 <0>         0.0962
     24 H3         -4.8181   10.4322    3.3483 H         1 <0>         0.0896
     25 H4         -6.2676   10.7826    4.3201 H         1 <0>         0.0967
     26 H5         -7.0003    8.9170    6.0643 H         1 <0>         0.1487
     27 H6         -6.7412    6.5020    6.5776 H         1 <0>         0.1654
     28 H7         -3.0044    5.0786    4.2250 H         1 <0>         0.2266
     29 H8         -1.9670    1.8443    6.2407 H         1 <0>         0.0870
     30 H9         -1.3652    3.5097    6.0606 H         1 <0>         0.0789
     31 H10        -2.8202    3.1896    7.0347 H         1 <0>         0.1009
     32 H11        -3.2768    0.7344    3.5597 H         1 <0>         0.1434
     33 H12        -2.0063    0.0590    1.5615 H         1 <0>         0.1537
     34 H13         0.0040    3.8204    1.5685 H         1 <0>         0.1510
     35 H14        -1.2732    4.4994    3.5613 H         1 <0>         0.1345
     36 H15        -1.2009    1.2230   -1.9525 H         1 <0>         0.2439
     37 H16        -1.1097    2.8224   -1.4463 H         1 <0>         0.2340
@<TRIPOS>BOND
     1    1    2 1
     2    1   23 1
     3    1   24 1
     4    1   25 1
     5    2    6 1
     6    2    3 2
     7    3    4 1
     8    3   26 1
     9    4    5 2
    10    4   27 1
    11    5    6 1
    12    5    7 1
    13    7    8 2
    14    7    9 am
    15    9   10 1
    16    9   28 1
    17   10   11 1
    18   10   12 1
    19   10   13 1
    20   12   29 1
    21   12   30 1
    22   12   31 1
    23   13   18 ar
    24   13   14 ar
    25   14   15 ar
    26   14   32 1
    27   15   16 ar
    28   15   33 1
    29   16   17 ar
    30   16   19 1
    31   17   18 ar
    32   17   34 1
    33   18   35 1
    34   19   20 2
    35   19   21 2
    36   19   22 1
    37   22   36 1
    38   22   37 1
@<TRIPOS>MOLECULE
ZINC03480404
   43    44     0     0     0
SMALL
USER_CHARGES

@<TRIPOS>ATOM
      1 C1         -5.5515    8.2507   -4.5666 C.3       1 <0>        -0.2169
      2 C2         -4.5212    7.1215   -4.5007 C.3       1 <0>         0.0132
      3 O1         -4.2311    6.8115   -3.1121 O.3       1 <0>        -0.2834
      4 C3         -3.3373    5.8328   -2.8784 C.2       1 <0>         0.3955
      5 O2         -2.8138    5.2536   -3.8088 O.2       1 <0>        -0.3440
      6 N1         -3.0230    5.4955   -1.6119 N.am      1 <0>        -0.3413
      7 C4         -2.1279    4.5155   -1.3779 C.2       1 <0>         0.2874
      8 O3         -1.6054    3.9374   -2.3066 O.2       1 <0>        -0.2631
      9 C5         -1.7765    4.1384    0.0382 C.3       1 <0>        -0.0178
     10 N2         -0.7893    3.0560    0.0247 N.am      1 <0>        -0.3110
     11 C6          0.5446    3.2481    0.0134 C.2       1 <0>         0.3190
     12 O4          1.1317    4.3087    0.0137 O.2       1 <0>        -0.2966
     13 C7          1.1581    1.8620    0.0010 C.3       1 <0>        -0.0192
     14 H1          1.7506    1.7129   -0.9016 H         1 <0>         0.1373
     15 N3         -0.0111    0.9658    0.0074 N.am      1 <0>        -0.3957
     16 C8         -1.1006    1.7549    0.0161 C.2       1 <0>         0.4113
     17 O5         -2.2404    1.3329    0.0190 O.2       1 <0>        -0.3710
     18 C9          2.0149    1.6378    1.2486 C.3       1 <0>        -0.1621
     19 C10         2.6331    0.2392    1.1982 C.3       1 <0>        -0.1203
     20 C11         3.4771    0.0184    2.4270 C.ar      1 <0>        -0.0811
     21 C12         4.8181    0.3537    2.4139 C.ar      1 <0>        -0.1220
     22 C13         5.5912    0.1552    3.5425 C.ar      1 <0>        -0.1238
     23 C14         5.0256   -0.3874    4.6811 C.ar      1 <0>        -0.1269
     24 C15         3.6857   -0.7272    4.6927 C.ar      1 <0>        -0.1243
     25 C16         2.9115   -0.5247    3.5655 C.ar      1 <0>        -0.1233
     26 H2         -6.4672    7.9368   -4.0655 H         1 <0>         0.0868
     27 H3         -5.1521    9.1363   -4.0724 H         1 <0>         0.0865
     28 H4         -5.7692    8.4834   -5.6090 H         1 <0>         0.0936
     29 H5         -3.6055    7.4354   -5.0018 H         1 <0>         0.0936
     30 H6         -4.9206    6.2359   -4.9949 H         1 <0>         0.0942
     31 H7         -3.4411    5.9581   -0.8689 H         1 <0>         0.2355
     32 H8         -2.6742    3.8049    0.5588 H         1 <0>         0.1365
     33 H9         -1.3591    5.0044    0.5519 H         1 <0>         0.1299
     34 H10         0.0021   -0.0041    0.0020 H         1 <0>         0.2778
     35 H11         2.8081    2.3846    1.2836 H         1 <0>         0.1139
     36 H12         1.3917    1.7277    2.1383 H         1 <0>         0.1004
     37 H13         1.8399   -0.5076    1.1632 H         1 <0>         0.0860
     38 H14         3.2563    0.1493    0.3084 H         1 <0>         0.0922
     39 H15         5.2610    0.7738    1.5229 H         1 <0>         0.1308
     40 H16         6.6380    0.4209    3.5336 H         1 <0>         0.1313
     41 H17         5.6304   -0.5456    5.5618 H         1 <0>         0.1305
     42 H18         3.2437   -1.1511    5.5823 H         1 <0>         0.1309
     43 H19         1.8648   -0.7904    3.5744 H         1 <0>         0.1297
@<TRIPOS>BOND
     1    1    2 1
     2    1   26 1
     3    1   27 1
     4    1   28 1
     5    2    3 1
     6    2   29 1
     7    2   30 1
     8    3    4 1
     9    4    5 2
    10    4    6 am
    11    6    7 am
    12    6   31 1
    13    7    8 2
    14    7    9 1
    15    9   10 1
    16    9   32 1
    17    9   33 1
    18   10   16 am
    19   10   11 am
    20   11   12 2
    21   11   13 1
    22   13   14 1
    23   13   15 1
    24   13   18 1
    25   15   16 am
    26   15   34 1
    27   16   17 2
    28   18   19 1
    29   18   35 1
    30   18   36 1
    31   19   20 1
    32   19   37 1
    33   19   38 1
    34   20   25 ar
    35   20   21 ar
    36   21   22 ar
    37   21   39 1
    38   22   23 ar
    39   22   40 1
    40   23   24 ar
    41   23   41 1
    42   24   25 ar
    43   24   42 1
    44   25   43 1
@<TRIPOS>MOLECULE
ZINC03484042
   41    43     0     0     0
SMALL
USER_CHARGES

@<TRIPOS>ATOM
      1 C1          2.4043    0.0374    0.0032 C.ar      1 <0>        -0.1769
      2 C2          2.3812    1.4226    0.0137 C.ar      1 <0>        -0.0645
      3 C3          1.1788    2.1010    0.0220 C.ar      1 <0>        -0.2386
      4 C4         -0.0165    1.3974    0.0199 C.ar      1 <0>         0.1513
      5 C5          0.0026   -0.0039    0.0093 C.ar      1 <0>        -0.1547
      6 C6          1.2265   -0.6776    0.0010 C.ar      1 <0>        -0.0679
      7 C7         -1.2623   -0.7631    0.0065 C.2       1 <0>         0.3429
      8 O1         -2.3255   -0.1732    0.0133 O.2       1 <0>        -0.3277
      9 N1         -1.2394   -2.1107   -0.0037 N.am      1 <0>        -0.4361
     10 O2         -1.1987    2.0626    0.0224 O.3       1 <0>        -0.1335
     11 C8         -1.1397    3.4904    0.0333 C.3       1 <0>        -0.0431
     12 C9         -2.5385    4.0510    0.0346 C.2       1 <0>         0.2956
     13 O3         -3.4922    3.3016    0.0269 O.2       1 <0>        -0.2981
     14 N2         -2.7299    5.3850    0.0443 N.am      1 <0>        -0.3308
     15 C10        -4.0246    5.9069   -0.0523 C.ar      1 <0>         0.0595
     16 C11        -5.0900    5.2414    0.5402 C.ar      1 <0>        -0.1232
     17 C12        -6.3645    5.7607    0.4422 C.ar      1 <0>        -0.0985
     18 C13        -6.5869    6.9432   -0.2451 C.ar      1 <0>        -0.0972
     19 C14        -5.5282    7.6080   -0.8361 C.ar      1 <0>        -0.0705
     20 C15        -4.2474    7.0937   -0.7354 C.ar      1 <0>        -0.1478
     21 C16        -6.0291    8.8624   -1.5196 C.3       1 <0>        -0.1189
     22 C17        -7.4252    9.1218   -0.9148 C.3       1 <0>        -0.1599
     23 C18        -7.8711    7.7062   -0.4914 C.3       1 <0>        -0.1188
     24 H1          3.3499   -0.4844   -0.0036 H         1 <0>         0.1343
     25 H2          3.3092    1.9750    0.0153 H         1 <0>         0.1325
     26 H3          1.1690    3.1809    0.0301 H         1 <0>         0.1348
     27 H4          1.2493   -1.7573   -0.0076 H         1 <0>         0.1309
     28 H5         -0.3913   -2.5813   -0.0092 H         1 <0>         0.2100
     29 H6         -2.0711   -2.6099   -0.0056 H         1 <0>         0.2316
     30 H7         -0.6132    3.8254    0.9270 H         1 <0>         0.0910
     31 H8         -0.6094    3.8389   -0.8529 H         1 <0>         0.0933
     32 H9         -1.9700    5.9835    0.1183 H         1 <0>         0.2270
     33 H10        -4.9211    4.3195    1.0768 H         1 <0>         0.1689
     34 H11        -7.1927    5.2430    0.9031 H         1 <0>         0.1341
     35 H12        -3.4199    7.6153   -1.1932 H         1 <0>         0.1255
     36 H13        -5.3639    9.6996   -1.3082 H         1 <0>         0.0865
     37 H14        -6.1066    8.7020   -2.5949 H         1 <0>         0.0959
     38 H15        -7.3563    9.7813   -0.0497 H         1 <0>         0.0895
     39 H16        -8.1017    9.5331   -1.6641 H         1 <0>         0.0873
     40 H17        -8.4436    7.2351   -1.2904 H         1 <0>         0.0958
     41 H18        -8.4638    7.7538    0.4221 H         1 <0>         0.0886
@<TRIPOS>BOND
     1    1    6 ar
     2    1    2 ar
     3    1   24 1
     4    2    3 ar
     5    2   25 1
     6    3    4 ar
     7    3   26 1
     8    4    5 ar
     9    4   10 1
    10    5    6 ar
    11    5    7 1
    12    6   27 1
    13    7    8 2
    14    7    9 am
    15    9   28 1
    16    9   29 1
    17   10   11 1
    18   11   12 1
    19   11   30 1
    20   11   31 1
    21   12   13 2
    22   12   14 am
    23   14   15 1
    24   14   32 1
    25   15   20 ar
    26   15   16 ar
    27   16   17 ar
    28   16   33 1
    29   17   18 ar
    30   17   34 1
    31   18   23 1
    32   18   19 ar
    33   19   20 ar
    34   19   21 1
    35   20   35 1
    36   21   22 1
    37   21   36 1
    38   21   37 1
    39   22   23 1
    40   22   38 1
    41   22   39 1
    42   23   40 1
    43   23   41 1
@<TRIPOS>MOLECULE
ZINC03487860
   45    46     0     0     0
SMALL
USER_CHARGES

@<TRIPOS>ATOM
      1 C1         -2.5899  -10.1649   -2.1643 C.3       1 <0>        -0.1999
      2 C2         -2.0351   -8.7697   -1.8703 C.3       1 <0>        -0.0334
      3 C3         -1.3862   -8.2021   -3.1343 C.3       1 <0>        -0.2075
      4 C4         -0.9895   -8.8607   -0.7571 C.3       1 <0>        -0.2097
      5 C5         -3.1578   -7.8648   -1.4323 C.ar      1 <0>        -0.1053
      6 C6         -4.4523   -8.3441   -1.3810 C.ar      1 <0>        -0.1096
      7 C7         -5.4826   -7.5148   -0.9784 C.ar      1 <0>        -0.1480
      8 C8         -5.2211   -6.2033   -0.6257 C.ar      1 <0>        -0.1113
      9 C9         -3.9285   -5.7194   -0.6702 C.ar      1 <0>        -0.1681
     10 C10        -2.8920   -6.5485   -1.0793 C.ar      1 <0>         0.0654
     11 N1         -1.5818   -6.0598   -1.1302 N.am      1 <0>        -0.3191
     12 C11        -1.3079   -4.8179   -0.6840 C.2       1 <0>         0.2980
     13 O1         -2.2105   -4.0843   -0.3401 O.2       1 <0>        -0.3333
     14 C12         0.1197   -4.3406   -0.6125 C.3       1 <0>        -0.0258
     15 O2          0.1506   -2.9810   -0.1038 O.3       1 <0>        -0.2398
     16 C13         1.3612   -2.4023    0.0223 C.2       1 <0>         0.3527
     17 O3          2.3634   -3.0170   -0.2845 O.2       1 <0>        -0.3470
     18 C14         1.4696   -1.0231    0.5325 C.2       1 <0>         0.0315
     19 C15         2.6677   -0.4575    0.6541 C.2       1 <0>        -0.1979
     20 C16         2.8396    0.9397    1.1732 C.3       1 <0>        -0.1325
     21 C17         1.5451    1.6982    1.1390 C.2       1 <0>         0.3072
     22 O4          1.5671    2.9079    1.2238 O.2       1 <0>        -0.3623
     23 N2          0.3626    1.0723    1.0166 N.am      1 <0>        -0.2635
     24 N3          0.3117   -0.3213    0.8838 N.pl3     1 <0>        -0.2820
     25 H1         -3.3348  -10.1001   -2.9574 H         1 <0>         0.0806
     26 H2         -1.7779  -10.8195   -2.4811 H         1 <0>         0.0761
     27 H3         -3.0522  -10.5693   -1.2638 H         1 <0>         0.0810
     28 H4         -1.0873   -7.1691   -2.9568 H         1 <0>         0.0670
     29 H5         -0.5084   -8.7956   -3.3899 H         1 <0>         0.0776
     30 H6         -2.1007   -8.2374   -3.9567 H         1 <0>         0.0896
     31 H7         -1.4262   -9.3523    0.1123 H         1 <0>         0.0892
     32 H8         -0.1338   -9.4371   -1.1086 H         1 <0>         0.0771
     33 H9         -0.6637   -7.8577   -0.4818 H         1 <0>         0.0686
     34 H10        -4.6597   -9.3679   -1.6554 H         1 <0>         0.1372
     35 H11        -6.4938   -7.8920   -0.9388 H         1 <0>         0.1286
     36 H12        -6.0281   -5.5582   -0.3109 H         1 <0>         0.1334
     37 H13        -3.7243   -4.6965   -0.3905 H         1 <0>         0.2055
     38 H14        -0.8706   -6.6149   -1.4866 H         1 <0>         0.2504
     39 H15         0.5616   -4.3660   -1.6086 H         1 <0>         0.1124
     40 H16         0.6872   -4.9907    0.0534 H         1 <0>         0.1134
     41 H17         3.5438   -1.0216    0.3700 H         1 <0>         0.1638
     42 H18         3.2009    0.8967    2.2006 H         1 <0>         0.1250
     43 H19         3.5737    1.4608    0.5586 H         1 <0>         0.1281
     44 H20        -0.4591    1.5879    1.0160 H         1 <0>         0.2625
     45 H21        -0.5204   -0.7963    1.0348 H         1 <0>         0.2741
@<TRIPOS>BOND
     1    1    2 1
     2    1   25 1
     3    1   26 1
     4    1   27 1
     5    2    3 1
     6    2    4 1
     7    2    5 1
     8    3   28 1
     9    3   29 1
    10    3   30 1
    11    4   31 1
    12    4   32 1
    13    4   33 1
    14    5   10 ar
    15    5    6 ar
    16    6    7 ar
    17    6   34 1
    18    7    8 ar
    19    7   35 1
    20    8    9 ar
    21    8   36 1
    22    9   10 ar
    23    9   37 1
    24   10   11 1
    25   11   12 am
    26   11   38 1
    27   12   13 2
    28   12   14 1
    29   14   15 1
    30   14   39 1
    31   14   40 1
    32   15   16 1
    33   16   17 2
    34   16   18 1
    35   18   24 1
    36   18   19 2
    37   19   20 1
    38   19   41 1
    39   20   21 1
    40   20   42 1
    41   20   43 1
    42   21   22 2
    43   21   23 am
    44   23   24 1
    45   23   44 1
    46   24   45 1
@<TRIPOS>MOLECULE
ZINC03490940
   39    40     0     0     0
SMALL
USER_CHARGES

@<TRIPOS>ATOM
      1 C1          1.2590    7.2849    0.0255 C.3       1 <0>        -0.2137
      2 C2          1.4022    5.7616    0.0169 C.3       1 <0>        -0.0127
      3 O1          0.1055    5.1612    0.0265 O.3       1 <0>        -0.1613
      4 C3          0.0545    3.8081    0.0206 C.ar      1 <0>         0.2175
      5 C4         -1.1889    3.1566    0.0289 C.ar      1 <0>        -0.1953
      6 C5         -1.2169    1.7569    0.0173 C.ar      1 <0>        -0.0069
      7 C6         -0.0126    1.0758    0.0080 C.ar      1 <0>        -0.2512
      8 C7          1.1725    1.7892    0.0005 C.ar      1 <0>         0.0284
      9 N1          1.1761    3.1083    0.0066 N.ar      1 <0>        -0.2559
     10 C8         -2.4422    3.9321    0.0435 C.2       1 <0>         0.3551
     11 O2         -2.4051    5.1466    0.0484 O.2       1 <0>        -0.3379
     12 O3         -3.6291    3.2942    0.0514 O.3       1 <0>        -0.2446
     13 C9         -4.8221    4.1218    0.0656 C.3       1 <0>        -0.0161
     14 C10        -6.0447    3.2406    0.0728 C.2       1 <0>         0.2890
     15 O4         -5.9225    2.0340    0.0665 O.2       1 <0>        -0.3209
     16 N2         -7.2737    3.7935    0.0862 N.am      1 <0>        -0.2623
     17 C11        -8.3986    2.9827    0.0928 C.2       1 <0>        -0.0860
     18 C12        -9.7357    3.3614    0.1121 C.2       1 <0>        -0.2733
     19 C13       -10.7118    2.2979    0.1110 C.2       1 <0>        -0.1279
     20 C14       -10.2453    1.0363    0.1018 C.2       1 <0>        -0.3782
     21 S1         -8.4778    1.2530    0.0866 S.3       1 <0>         0.5058
     22 C15       -10.1354    4.7721    0.1289 C.2       1 <0>         0.3843
     23 O5         -9.2871    5.6449    0.1261 O.2       1 <0>        -0.4143
     24 N3        -11.4419    5.1021    0.1474 N.am      1 <0>        -0.4219
     25 H1          0.7050    7.6027   -0.8578 H         1 <0>         0.0895
     26 H2          0.7219    7.5943    0.9221 H         1 <0>         0.0895
     27 H3          2.2481    7.7429    0.0182 H         1 <0>         0.0860
     28 H4          1.9563    5.4438    0.9002 H         1 <0>         0.0858
     29 H5          1.9393    5.4522   -0.8797 H         1 <0>         0.0858
     30 H6         -2.1552    1.2220    0.0192 H         1 <0>         0.1667
     31 H7          0.0021   -0.0041    0.0020 H         1 <0>         0.1465
     32 H8          2.1120    1.2565   -0.0110 H         1 <0>         0.1634
     33 H9         -4.8198    4.7472    0.9584 H         1 <0>         0.1177
     34 H10        -4.8358    4.7549   -0.8215 H         1 <0>         0.1176
     35 H11        -7.3714    4.7585    0.0912 H         1 <0>         0.2777
     36 H12       -11.7714    2.5063    0.1218 H         1 <0>         0.1380
     37 H13       -10.8074    0.1140    0.1032 H         1 <0>         0.1881
     38 H14       -12.1179    4.4065    0.1496 H         1 <0>         0.2183
     39 H15       -11.7063    6.0354    0.1586 H         1 <0>         0.2299
@<TRIPOS>BOND
     1    1    2 1
     2    1   25 1
     3    1   26 1
     4    1   27 1
     5    2    3 1
     6    2   28 1
     7    2   29 1
     8    3    4 1
     9    4    9 ar
    10    4    5 ar
    11    5    6 ar
    12    5   10 1
    13    6    7 ar
    14    6   30 1
    15    7    8 ar
    16    7   31 1
    17    8    9 ar
    18    8   32 1
    19   10   11 2
    20   10   12 1
    21   12   13 1
    22   13   14 1
    23   13   33 1
    24   13   34 1
    25   14   15 2
    26   14   16 am
    27   16   17 1
    28   16   35 1
    29   17   21 1
    30   17   18 2
    31   18   19 1
    32   18   22 1
    33   19   20 2
    34   19   36 1
    35   20   21 1
    36   20   37 1
    37   22   23 2
    38   22   24 am
    39   24   38 1
    40   24   39 1
@<TRIPOS>MOLECULE
ZINC03495848
   42    44     0     0     0
SMALL
USER_CHARGES

@<TRIPOS>ATOM
      1 C1         -0.3021    9.8878    4.6404 C.3       1 <0>        -0.1763
      2 C2          0.4139   10.5250    3.4775 C.ar      1 <0>        -0.1122
      3 C3          0.6729   11.8817    3.4844 C.ar      1 <0>        -0.1088
      4 C4          1.3306   12.4670    2.4183 C.ar      1 <0>        -0.1458
      5 C5          1.7312   11.6967    1.3418 C.ar      1 <0>        -0.1183
      6 C6          1.4791   10.3390    1.3305 C.ar      1 <0>        -0.1332
      7 C7          0.8143    9.7487    2.3979 C.ar      1 <0>         0.0736
      8 N1          0.5541    8.3748    2.3879 N.pl3     1 <0>        -0.2531
      9 C8          0.4685    7.6968    1.1874 C.ar      1 <0>         0.2761
     10 N2          0.3326    6.3725    1.1781 N.ar      1 <0>        -0.3401
     11 C9          0.2565    5.7225    0.0302 C.ar      1 <0>         0.1698
     12 N3          0.3040    6.3847   -1.1126 N.ar      1 <0>        -0.3415
     13 C10         0.4343    7.7093   -1.1114 C.ar      1 <0>         0.2763
     14 N4          0.5166    8.3659    0.0408 N.ar      1 <0>        -0.3668
     15 N5          0.4843    8.3998   -2.3052 N.pl3     1 <0>        -0.3636
     16 C11         0.1089    4.2228    0.0242 C.3       1 <0>        -0.1953
     17 S1          1.7479    3.4554   -0.0043 S.3       1 <0>         0.2567
     18 C12         1.2892    1.7541   -0.0068 C.2       1 <0>        -0.2189
     19 N6          0.0670    1.2752    0.0083 N.2       1 <0>        -0.1041
     20 N7          0.1014   -0.0096    0.0005 N.2       1 <0>        -0.0832
     21 C13         1.3366   -0.4238   -0.0199 C.2       1 <0>        -0.0829
     22 N8          2.1377    0.6845   -0.0253 N.pl3     1 <0>        -0.1567
     23 C14         3.6022    0.7174   -0.0460 C.3       1 <0>        -0.0674
     24 C15         1.7972   -1.8587   -0.0352 C.3       1 <0>        -0.1285
     25 H1          0.4275    9.5598    5.3808 H         1 <0>         0.0835
     26 H2         -0.9779   10.6135    5.0929 H         1 <0>         0.0879
     27 H3         -0.8739    9.0290    4.2886 H         1 <0>         0.0795
     28 H4          0.3617   12.4860    4.3237 H         1 <0>         0.1315
     29 H5          1.5322   13.5280    2.4264 H         1 <0>         0.1281
     30 H6          2.2450   12.1568    0.5107 H         1 <0>         0.1290
     31 H7          1.7955    9.7374    0.4912 H         1 <0>         0.1698
     32 H8          0.4336    7.8979    3.2239 H         1 <0>         0.2613
     33 H9          0.4245    7.9197   -3.1459 H         1 <0>         0.2448
     34 H10         0.5792    9.3651   -2.3035 H         1 <0>         0.2420
     35 H11        -0.4512    3.9164   -0.8592 H         1 <0>         0.1478
     36 H12        -0.4247    3.9066    0.9205 H         1 <0>         0.1474
     37 H13         3.9507    0.7312   -1.0787 H         1 <0>         0.0956
     38 H14         3.9528    1.6125    0.4678 H         1 <0>         0.1065
     39 H15         3.9926   -0.1670    0.4575 H         1 <0>         0.0981
     40 H16         1.8929   -2.1985   -1.0664 H         1 <0>         0.0973
     41 H17         2.7631   -1.9355    0.4639 H         1 <0>         0.0801
     42 H18         1.0685   -2.4797    0.4858 H         1 <0>         0.1139
@<TRIPOS>BOND
     1    1    2 1
     2    1   25 1
     3    1   26 1
     4    1   27 1
     5    2    7 ar
     6    2    3 ar
     7    3    4 ar
     8    3   28 1
     9    4    5 ar
    10    4   29 1
    11    5    6 ar
    12    5   30 1
    13    6    7 ar
    14    6   31 1
    15    7    8 1
    16    8    9 1
    17    8   32 1
    18    9   14 ar
    19    9   10 ar
    20   10   11 ar
    21   11   12 ar
    22   11   16 1
    23   12   13 ar
    24   13   14 ar
    25   13   15 1
    26   15   33 1
    27   15   34 1
    28   16   17 1
    29   16   35 1
    30   16   36 1
    31   17   18 1
    32   18   22 1
    33   18   19 2
    34   19   20 1
    35   20   21 2
    36   21   22 1
    37   21   24 1
    38   22   23 1
    39   23   37 1
    40   23   38 1
    41   23   39 1
    42   24   40 1
    43   24   41 1
    44   24   42 1
@<TRIPOS>MOLECULE
ZINC03500673
   42    46     0     0     0
SMALL
USER_CHARGES

@<TRIPOS>ATOM
      1 C1         -1.9162    2.1149   -1.3870 C.3       1 <0>        -0.2111
      2 C2         -1.3316    2.0790    0.0264 C.3       1 <0>        -0.2489
      3 H1         -2.0249    1.5667    0.6935 H         1 <0>         0.1331
      4 C3         -0.0164    1.3436    0.0075 C.2       1 <0>         0.3210
      5 O1          1.0255    1.9644   -0.0078 O.2       1 <0>        -0.3378
      6 N1          0.0021   -0.0041    0.0020 N.am      1 <0>        -0.3166
      7 C4          1.2191   -0.6875   -0.1190 C.ar      1 <0>         0.0627
      8 C5          1.2758   -1.8860   -0.8177 C.ar      1 <0>        -0.1571
      9 C6          2.4761   -2.5590   -0.9415 C.ar      1 <0>        -0.0967
     10 C7          3.6245   -2.0449   -0.3612 C.ar      1 <0>        -0.0108
     11 C8          3.5697   -0.8456    0.3448 C.ar      1 <0>         0.0222
     12 C9          2.3670   -0.1693    0.4644 C.ar      1 <0>        -0.1139
     13 O2          4.8191   -0.5576    0.8135 O.3       1 <0>        -0.2024
     14 C10         5.5531   -1.7939    0.7371 C.3       1 <0>         0.1067
     15 O3          4.9093   -2.5082   -0.3345 O.3       1 <0>        -0.2080
     16 S1         -1.0678    3.7746    0.6148 S.3       1 <0>         0.3100
     17 C11        -2.6931    4.4467    0.7206 C.2       1 <0>        -0.1785
     18 N2         -3.8067    3.8198    0.4285 N.2       1 <0>        -0.0986
     19 N3         -4.8716    4.7031    0.6467 N.2       1 <0>        -0.1281
     20 C12        -4.3737    5.8442    1.0661 C.2       1 <0>         0.0843
     21 N4         -3.0150    5.7134    1.1277 N.pl3     1 <0>        -0.1334
     22 C13        -2.4789    6.9214    1.5801 C.ar      1 <0>        -0.0126
     23 C14        -1.1783    7.3399    1.8214 C.ar      1 <0>        -0.0877
     24 C15        -0.9405    8.6214    2.2774 C.ar      1 <0>        -0.1376
     25 C16        -1.9950    9.4918    2.4945 C.ar      1 <0>        -0.0985
     26 C17        -3.2926    9.0852    2.2572 C.ar      1 <0>        -0.1424
     27 C18        -3.5417    7.7982    1.7988 C.ar      1 <0>         0.0462
     28 N5         -4.7136    7.1236    1.4708 N.pl3     1 <0>        -0.2347
     29 H2         -5.6126    7.4838    1.5257 H         1 <0>         0.2746
     30 H3         -1.2230    2.6272   -2.0541 H         1 <0>         0.0994
     31 H4         -2.0747    1.0961   -1.7406 H         1 <0>         0.0806
     32 H5         -2.8675    2.6468   -1.3734 H         1 <0>         0.1187
     33 H6         -0.8272   -0.5008    0.0819 H         1 <0>         0.2383
     34 H7          0.3814   -2.2909   -1.2676 H         1 <0>         0.1391
     35 H8          2.5186   -3.4892   -1.4886 H         1 <0>         0.1461
     36 H9          2.3224    0.7610    1.0111 H         1 <0>         0.1784
     37 H10         5.4684   -2.3480    1.6719 H         1 <0>         0.0872
     38 H11         6.5991   -1.6040    0.4966 H         1 <0>         0.1309
     39 H12        -0.3529    6.6640    1.6532 H         1 <0>         0.1509
     40 H13         0.0722    8.9460    2.4655 H         1 <0>         0.1436
     41 H14        -1.8016   10.4926    2.8514 H         1 <0>         0.1412
     42 H15        -4.1128    9.7667    2.4280 H         1 <0>         0.1400
@<TRIPOS>BOND
     1    1    2 1
     2    1   30 1
     3    1   31 1
     4    1   32 1
     5    2    3 1
     6    2    4 1
     7    2   16 1
     8    4    5 2
     9    4    6 am
    10    6    7 1
    11    6   33 1
    12    7   12 ar
    13    7    8 ar
    14    8    9 ar
    15    8   34 1
    16    9   10 ar
    17    9   35 1
    18   10   15 1
    19   10   11 ar
    20   11   12 ar
    21   11   13 1
    22   12   36 1
    23   13   14 1
    24   14   15 1
    25   14   37 1
    26   14   38 1
    27   16   17 1
    28   17   21 1
    29   17   18 2
    30   18   19 1
    31   19   20 2
    32   20   28 1
    33   20   21 1
    34   21   22 1
    35   22   27 ar
    36   22   23 ar
    37   23   24 ar
    38   23   39 1
    39   24   25 ar
    40   24   40 1
    41   25   26 ar
    42   25   41 1
    43   26   27 ar
    44   26   42 1
    45   27   28 1
    46   28   29 1
@<TRIPOS>MOLECULE
ZINC03507636
   42    43     0     0     0
SMALL
USER_CHARGES

@<TRIPOS>ATOM
      1 C1         -6.8882   -0.5445   -1.4989 C.3       1 <0>        -0.2304
      2 C2         -6.1889   -0.9178   -0.1902 C.3       1 <0>         0.0191
      3 H1         -6.8334   -0.6640    0.6514 H         1 <0>         0.1285
      4 C3         -4.8932   -0.1564   -0.0782 C.2       1 <0>         0.2993
      5 O1         -3.8368   -0.7524   -0.0870 O.2       1 <0>        -0.3238
      6 N1         -4.9082    1.1868    0.0318 N.am      1 <0>        -0.3134
      7 C4         -3.7046    1.9042    0.0192 C.ar      1 <0>         0.0369
      8 C5         -2.5825    1.3693   -0.5965 C.ar      1 <0>        -0.0535
      9 C6         -1.3967    2.0790   -0.6081 C.ar      1 <0>        -0.1302
     10 C7         -1.3237    3.3200   -0.0025 C.ar      1 <0>        -0.0503
     11 C8         -2.4393    3.8618    0.6084 C.ar      1 <0>        -0.2118
     12 C9         -3.6318    3.1567    0.6244 C.ar      1 <0>         0.0989
     13 O2         -4.7284    3.6859    1.2298 O.3       1 <0>        -0.2142
     14 C10        -4.5799    4.9744    1.8296 C.3       1 <0>        -0.0640
     15 N2         -0.2001    1.5066   -1.2650 N.pl3     1 <0>         0.5541
     16 O3         -0.2613    0.4114   -1.7945 O.2       1 <0>        -0.3475
     17 O4          0.8444    2.1330   -1.2804 O.3       1 <0>        -0.3637
     18 O5         -5.9151   -2.3437   -0.1774 O.3       1 <0>        -0.2311
     19 C11        -6.8666   -3.1446    0.3411 C.2       1 <0>         0.3558
     20 O6         -7.8969   -2.6647    0.7706 O.2       1 <0>        -0.3685
     21 C12        -6.6574   -4.6037    0.3871 C.ar      1 <0>        -0.1300
     22 C13        -5.4752   -5.1584   -0.1118 C.ar      1 <0>        -0.0576
     23 C14        -5.2816   -6.5206   -0.0616 C.ar      1 <0>        -0.1727
     24 C15        -6.2645   -7.3451    0.4736 C.ar      1 <0>         0.1073
     25 C16        -7.4440   -6.7981    0.9656 C.ar      1 <0>        -0.1745
     26 C17        -7.6433   -5.4365    0.9245 C.ar      1 <0>        -0.0499
     27 O7         -6.0718   -8.6877    0.5164 O.3       1 <0>        -0.2913
     28 H2         -7.8254   -1.0952   -1.5799 H         1 <0>         0.1039
     29 H3         -7.0938    0.5259   -1.5085 H         1 <0>         0.0844
     30 H4         -6.2438   -0.7983   -2.3405 H         1 <0>         0.0991
     31 H5         -5.7521    1.6568    0.1197 H         1 <0>         0.2472
     32 H6         -2.6356    0.3986   -1.0670 H         1 <0>         0.2090
     33 H7         -0.3939    3.8692   -0.0104 H         1 <0>         0.1664
     34 H8         -2.3800    4.8331    1.0769 H         1 <0>         0.1530
     35 H9         -5.5267    5.2787    2.2758 H         1 <0>         0.1166
     36 H10        -3.8121    4.9293    2.6019 H         1 <0>         0.0769
     37 H11        -4.2877    5.6980    1.0685 H         1 <0>         0.0737
     38 H12        -4.7132   -4.5190   -0.5323 H         1 <0>         0.1601
     39 H13        -4.3665   -6.9495   -0.4425 H         1 <0>         0.1489
     40 H14        -8.2052   -7.4423    1.3803 H         1 <0>         0.1477
     41 H15        -8.5598   -5.0123    1.3073 H         1 <0>         0.1568
     42 H16        -6.3855   -9.1553   -0.2697 H         1 <0>         0.2348
@<TRIPOS>BOND
     1    1    2 1
     2    1   28 1
     3    1   29 1
     4    1   30 1
     5    2    3 1
     6    2    4 1
     7    2   18 1
     8    4    5 2
     9    4    6 am
    10    6    7 1
    11    6   31 1
    12    7   12 ar
    13    7    8 ar
    14    8    9 ar
    15    8   32 1
    16    9   10 ar
    17    9   15 1
    18   10   11 ar
    19   10   33 1
    20   11   12 ar
    21   11   34 1
    22   12   13 1
    23   13   14 1
    24   14   35 1
    25   14   36 1
    26   14   37 1
    27   15   16 2
    28   15   17 1
    29   18   19 1
    30   19   20 2
    31   19   21 1
    32   21   26 ar
    33   21   22 ar
    34   22   23 ar
    35   22   38 1
    36   23   24 ar
    37   23   39 1
    38   24   25 ar
    39   24   27 1
    40   25   26 ar
    41   25   40 1
    42   26   41 1
    43   27   42 1
@<TRIPOS>MOLECULE
ZINC03507638
   41    42     0     0     0
SMALL
USER_CHARGES

@<TRIPOS>ATOM
      1 C1          1.8984   -4.8471    1.0407 C.3       1 <0>        -0.2302
      2 C2          2.4398   -4.2222   -0.2466 C.3       1 <0>         0.0162
      3 H1          1.8184   -4.5280   -1.0883 H         1 <0>         0.1279
      4 C3          2.4164   -2.7203   -0.1245 C.2       1 <0>         0.2995
      5 O1          3.4560   -2.0959   -0.1217 O.2       1 <0>        -0.3198
      6 N1          1.2401   -2.0711   -0.0183 N.am      1 <0>        -0.3268
      7 C4          1.2112   -0.6783   -0.0129 C.ar      1 <0>         0.0930
      8 C5          2.1420    0.0381   -0.7603 C.ar      1 <0>        -0.1453
      9 C6          2.1174    1.4087   -0.7580 C.ar      1 <0>        -0.0473
     10 C7          1.1541    2.0883   -0.0019 C.ar      1 <0>        -0.1782
     11 C8          0.2197    1.3635    0.7485 C.ar      1 <0>        -0.0724
     12 C9          0.2519   -0.0070    0.7402 C.ar      1 <0>        -0.1784
     13 C10         1.1240    3.5565    0.0042 C.2       1 <0>         0.2677
     14 O2          1.8675    4.1814   -0.7224 O.2       1 <0>        -0.2927
     15 C11         0.1692    4.2868    0.9131 C.3       1 <0>        -0.2544
     16 O3          3.8041   -4.6688   -0.4649 O.3       1 <0>        -0.2317
     17 C12         3.9711   -5.7960   -1.1841 C.2       1 <0>         0.3550
     18 O4          3.0032   -6.3894   -1.6171 O.2       1 <0>        -0.3681
     19 C13         5.3286   -6.3093   -1.4458 C.ar      1 <0>        -0.1296
     20 C14         6.4437   -5.6250   -0.9534 C.ar      1 <0>        -0.0584
     21 C15         7.7090   -6.1109   -1.1951 C.ar      1 <0>        -0.1733
     22 C16         7.8791   -7.2740   -1.9373 C.ar      1 <0>         0.1071
     23 C17         6.7731   -7.9544   -2.4336 C.ar      1 <0>        -0.1741
     24 C18         5.5041   -7.4785   -2.1917 C.ar      1 <0>        -0.0498
     25 O5          9.1282   -7.7466   -2.1777 O.3       1 <0>        -0.2919
     26 H2          0.8742   -4.5118    1.2045 H         1 <0>         0.0815
     27 H3          1.9153   -5.9334    0.9524 H         1 <0>         0.1036
     28 H4          2.5198   -4.5413    1.8824 H         1 <0>         0.1000
     29 H5          0.4136   -2.5736    0.0543 H         1 <0>         0.2352
     30 H6          2.8845   -0.4869   -1.3431 H         1 <0>         0.1653
     31 H7          2.8425    1.9636   -1.3348 H         1 <0>         0.1581
     32 H8         -0.5254    1.8834    1.3324 H         1 <0>         0.1375
     33 H9         -0.4683   -0.5667    1.3185 H         1 <0>         0.1322
     34 H10        -0.4210    3.6260    1.3768 H         1 <0>         0.0795
     35 H11         0.7339    4.8523    1.6543 H         1 <0>         0.1084
     36 H12        -0.4428    4.9697    0.3239 H         1 <0>         0.1068
     37 H13         6.3126   -4.7188   -0.3808 H         1 <0>         0.1593
     38 H14         8.5709   -5.5855   -0.8110 H         1 <0>         0.1481
     39 H15         6.9096   -8.8574   -3.0102 H         1 <0>         0.1479
     40 H16         4.6453   -8.0079   -2.5774 H         1 <0>         0.1572
     41 H17         9.5286   -7.4051   -2.9889 H         1 <0>         0.2354
@<TRIPOS>BOND
     1    1    2 1
     2    1   26 1
     3    1   27 1
     4    1   28 1
     5    2    3 1
     6    2    4 1
     7    2   16 1
     8    4    5 2
     9    4    6 am
    10    6    7 1
    11    6   29 1
    12    7   12 ar
    13    7    8 ar
    14    8    9 ar
    15    8   30 1
    16    9   10 ar
    17    9   31 1
    18   10   11 ar
    19   10   13 1
    20   11   12 ar
    21   11   32 1
    22   12   33 1
    23   13   14 2
    24   13   15 1
    25   15   34 1
    26   15   35 1
    27   15   36 1
    28   16   17 1
    29   17   18 2
    30   17   19 1
    31   19   24 ar
    32   19   20 ar
    33   20   21 ar
    34   20   37 1
    35   21   22 ar
    36   21   38 1
    37   22   23 ar
    38   22   25 1
    39   23   24 ar
    40   23   39 1
    41   24   40 1
    42   25   41 1
@<TRIPOS>MOLECULE
ZINC03507808
   42    44     0     0     0
SMALL
USER_CHARGES

@<TRIPOS>ATOM
      1 C1          5.7372   -2.5453   -1.1595 C.3       1 <0>        -0.2300
      2 C2          4.9528   -2.7394    0.1397 C.3       1 <0>         0.0160
      3 H1          5.5306   -2.3446    0.9754 H         1 <0>         0.1269
      4 C3          3.6387   -2.0075    0.0473 C.2       1 <0>         0.3000
      5 O1          2.5968   -2.6284    0.0564 O.2       1 <0>        -0.3260
      6 N1          3.6213   -0.6630   -0.0455 N.am      1 <0>        -0.3240
      7 C4          2.4012    0.0251   -0.0201 C.ar      1 <0>         0.0619
      8 C5          1.3456   -0.4605    0.7399 C.ar      1 <0>        -0.1271
      9 C6          0.1419    0.2167    0.7638 C.ar      1 <0>        -0.1053
     10 C7         -0.0164    1.3829    0.0296 C.ar      1 <0>         0.0041
     11 C8          1.0394    1.8729   -0.7301 C.ar      1 <0>         0.0357
     12 C9          2.2469    1.1920   -0.7549 C.ar      1 <0>        -0.1578
     13 O2          0.9058    3.0202   -1.4502 O.3       1 <0>        -0.2061
     14 C10        -0.4296    3.4725   -1.6989 C.3       1 <0>        -0.0511
     15 C11        -1.2164    3.3945   -0.3836 C.3       1 <0>        -0.0520
     16 O3         -1.2132    2.0324    0.0593 O.3       1 <0>        -0.2038
     17 O4          4.7049   -4.1547    0.3485 O.3       1 <0>        -0.2314
     18 C12         5.6313   -4.8418    1.0452 C.2       1 <0>         0.3545
     19 O5          6.6192   -4.2738    1.4668 O.2       1 <0>        -0.3686
     20 C13         5.4461   -6.2832    1.2961 C.ar      1 <0>        -0.1287
     21 C14         4.3074   -6.9374    0.8169 C.ar      1 <0>        -0.0585
     22 C15         4.1412   -8.2844    1.0484 C.ar      1 <0>        -0.1735
     23 C16         5.0981   -8.9913    1.7675 C.ar      1 <0>         0.1060
     24 C17         6.2291   -8.3434    2.2507 C.ar      1 <0>        -0.1743
     25 C18         6.4059   -6.9978    2.0187 C.ar      1 <0>        -0.0502
     26 O6          4.9280  -10.3177    1.9979 O.3       1 <0>        -0.2921
     27 H2          5.1594   -2.9401   -1.9952 H         1 <0>         0.0997
     28 H3          5.9233   -1.4828   -1.3163 H         1 <0>         0.0825
     29 H4          6.6877   -3.0746   -1.0927 H         1 <0>         0.1018
     30 H5          4.4535   -0.1719   -0.1299 H         1 <0>         0.2333
     31 H6          1.4658   -1.3679    1.3131 H         1 <0>         0.1651
     32 H7         -0.6782   -0.1630    1.3552 H         1 <0>         0.1502
     33 H8          3.0676    1.5698   -1.3467 H         1 <0>         0.1443
     34 H9         -0.4085    4.5028   -2.0541 H         1 <0>         0.1209
     35 H10        -0.9001    2.8352   -2.4477 H         1 <0>         0.0959
     36 H11        -0.7422    4.0275    0.3665 H         1 <0>         0.0933
     37 H12        -2.2421    3.7244   -0.5486 H         1 <0>         0.1215
     38 H13         3.5611   -6.3879    0.2624 H         1 <0>         0.1598
     39 H14         3.2641   -8.7916    0.6745 H         1 <0>         0.1476
     40 H15         6.9700   -8.8962    2.8092 H         1 <0>         0.1474
     41 H16         7.2850   -6.4953    2.3942 H         1 <0>         0.1571
     42 H17         4.4517  -10.5169    2.8156 H         1 <0>         0.2348
@<TRIPOS>BOND
     1    1    2 1
     2    1   27 1
     3    1   28 1
     4    1   29 1
     5    2    3 1
     6    2    4 1
     7    2   17 1
     8    4    5 2
     9    4    6 am
    10    6    7 1
    11    6   30 1
    12    7   12 ar
    13    7    8 ar
    14    8    9 ar
    15    8   31 1
    16    9   10 ar
    17    9   32 1
    18   10   16 1
    19   10   11 ar
    20   11   12 ar
    21   11   13 1
    22   12   33 1
    23   13   14 1
    24   14   15 1
    25   14   34 1
    26   14   35 1
    27   15   16 1
    28   15   36 1
    29   15   37 1
    30   17   18 1
    31   18   19 2
    32   18   20 1
    33   20   25 ar
    34   20   21 ar
    35   21   22 ar
    36   21   38 1
    37   22   23 ar
    38   22   39 1
    39   23   24 ar
    40   23   26 1
    41   24   25 ar
    42   24   40 1
    43   25   41 1
    44   26   42 1
@<TRIPOS>MOLECULE
ZINC03507809
   42    44     0     0     0
SMALL
USER_CHARGES

@<TRIPOS>ATOM
      1 C1          5.6526   -2.3654    1.4514 C.3       1 <0>        -0.2296
      2 C2          4.9527   -2.7393    0.1432 C.3       1 <0>         0.0160
      3 H1          5.5850   -2.4602   -0.6997 H         1 <0>         0.1264
      4 C3          3.6387   -2.0074    0.0495 C.2       1 <0>         0.2998
      5 O1          2.5968   -2.6283    0.0584 O.2       1 <0>        -0.3251
      6 N1          3.6213   -0.6630   -0.0442 N.am      1 <0>        -0.3238
      7 C4          2.4012    0.0251   -0.0199 C.ar      1 <0>         0.0618
      8 C5          1.3452   -0.4598    0.7401 C.ar      1 <0>        -0.1277
      9 C6          0.1420    0.2180    0.7640 C.ar      1 <0>        -0.1054
     10 C7         -0.0157    1.3842    0.0296 C.ar      1 <0>         0.0041
     11 C8          1.0403    1.8734   -0.7303 C.ar      1 <0>         0.0359
     12 C9          2.2475    1.1920   -0.7550 C.ar      1 <0>        -0.1574
     13 O2          0.9073    3.0206   -1.4507 O.3       1 <0>        -0.2060
     14 C10        -0.4278    3.4736   -1.6995 C.3       1 <0>        -0.0510
     15 C11        -1.2146    3.3964   -0.3841 C.3       1 <0>        -0.0521
     16 O3         -1.2121    2.0344    0.0591 O.3       1 <0>        -0.2038
     17 O4          4.7125   -4.1710    0.1149 O.3       1 <0>        -0.2314
     18 C12         5.6788   -4.9429   -0.4199 C.2       1 <0>         0.3549
     19 O5          6.6944   -4.4337   -0.8507 O.2       1 <0>        -0.3686
     20 C13         5.5037   -6.4059   -0.4823 C.ar      1 <0>        -0.1283
     21 C14         4.3385   -6.9943    0.0180 C.ar      1 <0>        -0.0584
     22 C15         4.1766   -8.3600   -0.0474 C.ar      1 <0>        -0.1734
     23 C16         5.1748   -9.1546   -0.5996 C.ar      1 <0>         0.1059
     24 C17         6.3375   -8.5740   -1.0930 C.ar      1 <0>        -0.1742
     25 C18         6.5050   -7.2086   -1.0367 C.ar      1 <0>        -0.0502
     26 O6          5.0135  -10.5007   -0.6574 O.3       1 <0>        -0.2916
     27 H2          5.0203   -2.6445    2.2943 H         1 <0>         0.0972
     28 H3          6.6030   -2.8947    1.5192 H         1 <0>         0.1012
     29 H4          5.8329   -1.2906    1.4727 H         1 <0>         0.0849
     30 H5          4.4535   -0.1719   -0.1284 H         1 <0>         0.2331
     31 H6          1.4649   -1.3674    1.3132 H         1 <0>         0.1647
     32 H7         -0.6782   -0.1610    1.3556 H         1 <0>         0.1501
     33 H8          3.0686    1.5695   -1.3464 H         1 <0>         0.1449
     34 H9         -0.4062    4.5037   -2.0549 H         1 <0>         0.1209
     35 H10        -0.8987    2.8363   -2.4480 H         1 <0>         0.0962
     36 H11        -0.7400    4.0293    0.3658 H         1 <0>         0.0931
     37 H12        -2.2401    3.7268   -0.5492 H         1 <0>         0.1215
     38 H13         3.5647   -6.3781    0.4515 H         1 <0>         0.1594
     39 H14         3.2747   -8.8150    0.3345 H         1 <0>         0.1475
     40 H15         7.1107   -9.1949   -1.5208 H         1 <0>         0.1474
     41 H16         7.4084   -6.7583   -1.4206 H         1 <0>         0.1572
     42 H17         5.3437  -10.9702    0.1208 H         1 <0>         0.2342
@<TRIPOS>BOND
     1    1    2 1
     2    1   27 1
     3    1   28 1
     4    1   29 1
     5    2    3 1
     6    2    4 1
     7    2   17 1
     8    4    5 2
     9    4    6 am
    10    6    7 1
    11    6   30 1
    12    7   12 ar
    13    7    8 ar
    14    8    9 ar
    15    8   31 1
    16    9   10 ar
    17    9   32 1
    18   10   16 1
    19   10   11 ar
    20   11   12 ar
    21   11   13 1
    22   12   33 1
    23   13   14 1
    24   14   15 1
    25   14   34 1
    26   14   35 1
    27   15   16 1
    28   15   36 1
    29   15   37 1
    30   17   18 1
    31   18   19 2
    32   18   20 1
    33   20   25 ar
    34   20   21 ar
    35   21   22 ar
    36   21   38 1
    37   22   23 ar
    38   22   39 1
    39   23   24 ar
    40   23   26 1
    41   24   25 ar
    42   24   40 1
    43   25   41 1
    44   26   42 1
@<TRIPOS>MOLECULE
ZINC03507831
   39    40     0     0     0
SMALL
USER_CHARGES

@<TRIPOS>ATOM
      1 C1          9.1129   -8.3827   -0.1292 C.3       1 <0>        -0.0695
      2 O1          7.8163   -7.7820   -0.1135 O.3       1 <0>        -0.1656
      3 C2          6.7496   -8.6198   -0.1073 C.ar      1 <0>         0.1594
      4 C3          6.9423   -9.9934   -0.1156 C.ar      1 <0>        -0.2325
      5 C4          5.8557  -10.8449   -0.1084 C.ar      1 <0>        -0.0594
      6 C5          4.5667  -10.3366   -0.0932 C.ar      1 <0>        -0.1772
      7 C6          4.3563   -8.9752   -0.0799 C.ar      1 <0>        -0.0693
      8 C7          5.4471   -8.1015   -0.0920 C.ar      1 <0>        -0.1714
      9 C8          5.2294   -6.6433   -0.0825 C.2       1 <0>         0.3411
     10 O2          6.1806   -5.8868   -0.0880 O.2       1 <0>        -0.2611
     11 N1          3.9755   -6.1493   -0.0678 N.am      1 <0>        -0.3642
     12 C9          3.7765   -4.8163   -0.0591 C.2       1 <0>         0.2860
     13 O3          4.7253   -4.0617   -0.0646 O.2       1 <0>        -0.2573
     14 C10         2.3745   -4.2639   -0.0426 C.3       1 <0>        -0.0282
     15 O4          2.4260   -2.8129   -0.0358 O.3       1 <0>        -0.2331
     16 C11         1.2480   -2.1589   -0.0210 C.2       1 <0>         0.3550
     17 O5          0.2061   -2.7841   -0.0140 O.2       1 <0>        -0.3684
     18 C12         1.2232   -0.6845   -0.0133 C.ar      1 <0>        -0.1292
     19 C13         0.0021   -0.0041    0.0020 C.ar      1 <0>        -0.0503
     20 C14        -0.0166    1.3726    0.0096 C.ar      1 <0>        -0.1748
     21 C15         1.1765    2.0859    0.0020 C.ar      1 <0>         0.1062
     22 C16         2.3930    1.4132   -0.0133 C.ar      1 <0>        -0.1730
     23 C17         2.4207    0.0368   -0.0210 C.ar      1 <0>        -0.0579
     24 O6          1.1537    3.4427    0.0096 O.3       1 <0>        -0.2919
     25 H1          9.2178   -8.9971   -1.0234 H         1 <0>         0.0674
     26 H2          9.8745   -7.6029   -0.1328 H         1 <0>         0.1192
     27 H3          9.2352   -9.0061    0.7565 H         1 <0>         0.0673
     28 H4          7.9439  -10.3973   -0.1275 H         1 <0>         0.1435
     29 H5          6.0112  -11.9136   -0.1142 H         1 <0>         0.1348
     30 H6          3.7231  -11.0109   -0.0876 H         1 <0>         0.1356
     31 H7          3.3499   -8.5836   -0.0639 H         1 <0>         0.1253
     32 H8          3.2163   -6.7531   -0.0634 H         1 <0>         0.2268
     33 H9          1.8568   -4.6133    0.8507 H         1 <0>         0.1086
     34 H10         1.8394   -4.6043   -0.9291 H         1 <0>         0.1093
     35 H11        -0.9253   -0.5575    0.0083 H         1 <0>         0.1567
     36 H12        -0.9596    1.8990    0.0169 H         1 <0>         0.1472
     37 H13         3.3177    1.9712   -0.0195 H         1 <0>         0.1484
     38 H14         3.3661   -0.4851   -0.0325 H         1 <0>         0.1619
     39 H15         1.1556    3.8312    0.8951 H         1 <0>         0.2346
@<TRIPOS>BOND
     1    1    2 1
     2    1   25 1
     3    1   26 1
     4    1   27 1
     5    2    3 1
     6    3    8 ar
     7    3    4 ar
     8    4    5 ar
     9    4   28 1
    10    5    6 ar
    11    5   29 1
    12    6    7 ar
    13    6   30 1
    14    7    8 ar
    15    7   31 1
    16    8    9 1
    17    9   10 2
    18    9   11 am
    19   11   12 am
    20   11   32 1
    21   12   13 2
    22   12   14 1
    23   14   15 1
    24   14   33 1
    25   14   34 1
    26   15   16 1
    27   16   17 2
    28   16   18 1
    29   18   23 ar
    30   18   19 ar
    31   19   20 ar
    32   19   35 1
    33   20   21 ar
    34   20   36 1
    35   21   22 ar
    36   21   24 1
    37   22   23 ar
    38   22   37 1
    39   23   38 1
    40   24   39 1
@<TRIPOS>MOLECULE
ZINC03509822
   44    46     0     0     0
SMALL
USER_CHARGES

@<TRIPOS>ATOM
      1 C1          9.2050    3.8622   -0.0658 C.3       1 <0>        -0.1478
      2 C2          7.8580    4.5378   -0.0496 C.2       1 <0>        -0.0793
      3 C3          6.6711    3.9083   -0.0412 C.2       1 <0>        -0.1632
      4 C4          5.6443    4.9590   -0.0258 C.2       1 <0>        -0.2569
      5 C5          6.3302    6.1595   -0.0318 C.2       1 <0>         0.0215
      6 N1          7.6494    5.8886   -0.0405 N.pl3     1 <0>        -0.0595
      7 C6          8.6654    6.8558   -0.0454 C.ar      1 <0>        -0.0160
      8 C7          8.8253    7.7003    1.0449 C.ar      1 <0>        -0.0788
      9 C8          9.8289    8.6486    1.0418 C.ar      1 <0>        -0.2167
     10 C9         10.6707    8.7646   -0.0549 C.ar      1 <0>         0.1063
     11 C10        10.5076    7.9247   -1.1471 C.ar      1 <0>        -0.1538
     12 C11         9.5077    6.9726   -1.1428 C.ar      1 <0>        -0.0823
     13 O1         11.6553    9.7019   -0.0596 O.3       1 <0>        -0.2074
     14 C12        11.7658   10.5326    1.0979 C.3       1 <0>        -0.0648
     15 C13         5.7094    7.5327   -0.0260 C.3       1 <0>        -0.1605
     16 C14         4.1921    4.7729   -0.0130 C.2       1 <0>         0.3221
     17 O2          3.4568    5.7382   -0.0012 O.2       1 <0>        -0.3086
     18 C15         3.6105    3.3827   -0.0145 C.3       1 <0>        -0.2954
     19 S1          1.7994    3.4848    0.0031 S.3       1 <0>         0.2687
     20 C16         1.2775    1.8019   -0.0005 C.2       1 <0>        -0.1924
     21 N2         -0.0164    1.3619    0.0095 N.pl3     1 <0>        -0.2476
     22 H1         -0.8089    1.9213    0.0165 H         1 <0>         0.2446
     23 C17         0.0021   -0.0041    0.0020 C.2       1 <0>         0.1202
     24 N3          1.2534   -0.3924   -0.0120 N.2       1 <0>        -0.1638
     25 N4          2.0620    0.7517   -0.0136 N.2       1 <0>        -0.1066
     26 N5         -1.1105   -0.8355    0.0082 N.pl3     1 <0>        -0.4013
     27 H2          9.5201    3.7047   -1.0973 H         1 <0>         0.0854
     28 H3          9.9336    4.4921    0.4446 H         1 <0>         0.0853
     29 H4          9.1355    2.9011    0.4437 H         1 <0>         0.0953
     30 H5          6.5048    2.8412   -0.0455 H         1 <0>         0.1595
     31 H6          8.1675    7.6128    1.8969 H         1 <0>         0.1466
     32 H7          9.9560    9.3029    1.8916 H         1 <0>         0.1435
     33 H8         11.1631    8.0154   -2.0006 H         1 <0>         0.1523
     34 H9          9.3806    6.3190   -1.9932 H         1 <0>         0.1500
     35 H10        11.9563    9.9120    1.9736 H         1 <0>         0.0703
     36 H11        12.5888   11.2346    0.9641 H         1 <0>         0.1128
     37 H12        10.8366   11.0846    1.2390 H         1 <0>         0.0704
     38 H13         5.5695    7.8638    1.0031 H         1 <0>         0.0937
     39 H14         6.3658    8.2304   -0.5460 H         1 <0>         0.0820
     40 H15         4.7440    7.4972   -0.5306 H         1 <0>         0.1264
     41 H16         3.9244    2.8892    0.7966 H         1 <0>         0.1280
     42 H17         3.9359    2.8537   -0.9103 H         1 <0>         0.1394
     43 H18        -2.0018   -0.4529    0.0187 H         1 <0>         0.2243
     44 H19        -0.9962   -1.7987    0.0019 H         1 <0>         0.2540
@<TRIPOS>BOND
     1    1    2 1
     2    1   27 1
     3    1   28 1
     4    1   29 1
     5    2    6 1
     6    2    3 2
     7    3    4 1
     8    3   30 1
     9    4    5 2
    10    4   16 1
    11    5    6 1
    12    5   15 1
    13    6    7 1
    14    7   12 ar
    15    7    8 ar
    16    8    9 ar
    17    8   31 1
    18    9   10 ar
    19    9   32 1
    20   10   11 ar
    21   10   13 1
    22   11   12 ar
    23   11   33 1
    24   12   34 1
    25   13   14 1
    26   14   35 1
    27   14   36 1
    28   14   37 1
    29   15   38 1
    30   15   39 1
    31   15   40 1
    32   16   17 2
    33   16   18 1
    34   18   19 1
    35   18   41 1
    36   18   42 1
    37   19   20 1
    38   20   25 2
    39   20   21 1
    40   21   22 1
    41   21   23 1
    42   23   24 2
    43   23   26 1
    44   24   25 1
    45   26   43 1
    46   26   44 1
@<TRIPOS>MOLECULE
ZINC03513665
   44    47     0     0     0
SMALL
USER_CHARGES

@<TRIPOS>ATOM
      1 C1          5.7379   -2.5460   -1.1556 C.3       1 <0>        -0.2323
      2 C2          4.9527   -2.7393    0.1432 C.3       1 <0>         0.0174
      3 H1          5.5300   -2.3439    0.9790 H         1 <0>         0.1277
      4 C3          3.6387   -2.0074    0.0495 C.2       1 <0>         0.3007
      5 O1          2.5968   -2.6283    0.0584 O.2       1 <0>        -0.3296
      6 N1          3.6213   -0.6630   -0.0442 N.am      1 <0>        -0.3219
      7 C4          2.4012    0.0251   -0.0200 C.ar      1 <0>         0.0601
      8 C5          1.3451   -0.4598    0.7399 C.ar      1 <0>        -0.1269
      9 C6          0.1419    0.2180    0.7636 C.ar      1 <0>        -0.1051
     10 C7         -0.0157    1.3841    0.0291 C.ar      1 <0>         0.0053
     11 C8          1.0404    1.8733   -0.7306 C.ar      1 <0>         0.0360
     12 C9          2.2476    1.1919   -0.7551 C.ar      1 <0>        -0.1570
     13 O2          0.9074    3.0205   -1.4511 O.3       1 <0>        -0.2060
     14 C10        -0.4277    3.4735   -1.7000 C.3       1 <0>        -0.0511
     15 C11        -1.2146    3.3963   -0.3847 C.3       1 <0>        -0.0521
     16 O3         -1.2122    2.0343    0.0585 O.3       1 <0>        -0.2034
     17 O4          4.7086   -4.1321    0.3495 O.3       1 <0>        -0.2424
     18 C12         5.6359   -4.8197    1.0483 C.2       1 <0>         0.3816
     19 O5          6.6249   -4.2507    1.4706 O.2       1 <0>        -0.3485
     20 C13         5.4522   -6.2486    1.2979 C.2       1 <0>        -0.1588
     21 C14         6.3205   -7.0989    1.9968 C.ar      1 <0>        -0.0734
     22 C15         7.5486   -6.9725    2.6575 C.ar      1 <0>        -0.0825
     23 C16         8.1095   -8.0655    3.2430 C.ar      1 <0>        -0.1268
     24 C17         7.4899   -9.3143    3.2023 C.ar      1 <0>        -0.1229
     25 C18         6.2958   -9.5018    2.5827 C.ar      1 <0>        -0.0784
     26 C19         5.6614   -8.4126    1.9524 C.ar      1 <0>        -0.0814
     27 N2          4.5416   -8.2410    1.2718 N.2       1 <0>        -0.0701
     28 N3          4.4055   -7.0214    0.8926 N.pl3     1 <0>        -0.0329
     29 H2          3.6273   -6.6809    0.3649 H         1 <0>         0.3035
     30 H3          5.1607   -2.9413   -1.9914 H         1 <0>         0.0992
     31 H4          5.9241   -1.4836   -1.3129 H         1 <0>         0.0845
     32 H5          6.6884   -3.0753   -1.0878 H         1 <0>         0.1023
     33 H6          4.4535   -0.1719   -0.1283 H         1 <0>         0.2340
     34 H7          1.4647   -1.3674    1.3130 H         1 <0>         0.1647
     35 H8         -0.6784   -0.1610    1.3552 H         1 <0>         0.1508
     36 H9          3.0687    1.5694   -1.3465 H         1 <0>         0.1444
     37 H10        -0.4061    4.5037   -2.0555 H         1 <0>         0.1214
     38 H11        -0.8985    2.8362   -2.4486 H         1 <0>         0.0960
     39 H12        -0.7401    4.0293    0.3652 H         1 <0>         0.0937
     40 H13        -2.2401    3.7267   -0.5499 H         1 <0>         0.1220
     41 H14         8.0468   -6.0153    2.7018 H         1 <0>         0.1515
     42 H15         9.0568   -7.9633    3.7516 H         1 <0>         0.1322
     43 H16         7.9706  -10.1546    3.6812 H         1 <0>         0.1327
     44 H17         5.8401  -10.4808    2.5653 H         1 <0>         0.1415
@<TRIPOS>BOND
     1    1    2 1
     2    1   30 1
     3    1   31 1
     4    1   32 1
     5    2    3 1
     6    2    4 1
     7    2   17 1
     8    4    5 2
     9    4    6 am
    10    6    7 1
    11    6   33 1
    12    7   12 ar
    13    7    8 ar
    14    8    9 ar
    15    8   34 1
    16    9   10 ar
    17    9   35 1
    18   10   16 1
    19   10   11 ar
    20   11   12 ar
    21   11   13 1
    22   12   36 1
    23   13   14 1
    24   14   15 1
    25   14   37 1
    26   14   38 1
    27   15   16 1
    28   15   39 1
    29   15   40 1
    30   17   18 1
    31   18   19 2
    32   18   20 1
    33   20   28 1
    34   20   21 2
    35   21   26 ar
    36   21   22 ar
    37   22   23 ar
    38   22   41 1
    39   23   24 ar
    40   23   42 1
    41   24   25 ar
    42   24   43 1
    43   25   26 ar
    44   25   44 1
    45   26   27 2
    46   27   28 1
    47   28   29 1
@<TRIPOS>MOLECULE
ZINC03513691
   42    44     0     0     0
SMALL
USER_CHARGES

@<TRIPOS>ATOM
      1 C1          1.3675   -4.7158    1.4201 C.3       1 <0>        -0.2328
      2 C2          1.1974   -4.2203   -0.0174 C.3       1 <0>         0.0174
      3 H1          2.1557   -4.2693   -0.5344 H         1 <0>         0.1299
      4 C3          0.1955   -5.0894   -0.7330 C.2       1 <0>         0.3008
      5 O1         -0.8173   -4.5999   -1.1867 O.2       1 <0>        -0.3395
      6 N1          0.4250   -6.4105   -0.8690 N.am      1 <0>        -0.3091
      7 C4         -0.5567   -7.2380   -1.4303 C.ar      1 <0>         0.0382
      8 C5         -1.8925   -6.8677   -1.3761 C.ar      1 <0>        -0.1045
      9 C6         -2.8584   -7.6831   -1.9347 C.ar      1 <0>        -0.1454
     10 C7         -2.4981   -8.8734   -2.5393 C.ar      1 <0>        -0.1077
     11 C8         -1.1694   -9.2515   -2.5924 C.ar      1 <0>        -0.2013
     12 C9         -0.1945   -8.4373   -2.0391 C.ar      1 <0>         0.0606
     13 O2          1.1127   -8.8084   -2.0897 O.3       1 <0>        -0.2255
     14 C10         1.4100  -10.0511   -2.7295 C.3       1 <0>        -0.0594
     15 O3          0.7321   -2.8692   -0.0037 O.3       1 <0>        -0.2431
     16 C11         1.6695   -1.8985    0.0026 C.2       1 <0>         0.3819
     17 O4          2.8500   -2.1927   -0.0034 O.2       1 <0>        -0.3481
     18 C12         1.2664   -0.4931    0.0167 C.2       1 <0>        -0.1574
     19 C13         2.1127    0.6246    0.0251 C.ar      1 <0>        -0.0739
     20 C14         3.4948    0.8493    0.0239 C.ar      1 <0>        -0.0817
     21 C15         3.9656    2.1261    0.0344 C.ar      1 <0>        -0.1276
     22 C16         3.1032    3.2222    0.0462 C.ar      1 <0>        -0.1228
     23 C17         1.7533    3.0717    0.0484 C.ar      1 <0>        -0.0789
     24 C18         1.1985    1.7763    0.0380 C.ar      1 <0>        -0.0811
     25 N2         -0.0250    1.2765    0.0363 N.2       1 <0>        -0.0712
     26 N3         -0.0070   -0.0077    0.0243 N.pl3     1 <0>        -0.0331
     27 H2         -0.8265   -0.5808    0.0209 H         1 <0>         0.3030
     28 H3          0.4091   -4.6668    1.9371 H         1 <0>         0.0959
     29 H4          1.7224   -5.7463    1.4097 H         1 <0>         0.0876
     30 H5          2.0921   -4.0872    1.9377 H         1 <0>         0.1016
     31 H6          1.2697   -6.7885   -0.5783 H         1 <0>         0.2428
     32 H7         -2.1772   -5.9406   -0.9009 H         1 <0>         0.1751
     33 H8         -3.8977   -7.3921   -1.8949 H         1 <0>         0.1360
     34 H9         -3.2567   -9.5094   -2.9708 H         1 <0>         0.1310
     35 H10        -0.8914  -10.1820   -3.0650 H         1 <0>         0.1369
     36 H11         1.0753  -10.0152   -3.7662 H         1 <0>         0.0717
     37 H12         2.4854  -10.2264   -2.7008 H         1 <0>         0.1077
     38 H13         0.8960  -10.8595   -2.2096 H         1 <0>         0.0687
     39 H14         4.1817    0.0159    0.0143 H         1 <0>         0.1517
     40 H15         5.0324    2.2947    0.0334 H         1 <0>         0.1320
     41 H16         3.5204    4.2183    0.0541 H         1 <0>         0.1324
     42 H17         1.1096    3.9388    0.0576 H         1 <0>         0.1412
@<TRIPOS>BOND
     1    1    2 1
     2    1   28 1
     3    1   29 1
     4    1   30 1
     5    2    3 1
     6    2    4 1
     7    2   15 1
     8    4    5 2
     9    4    6 am
    10    6    7 1
    11    6   31 1
    12    7   12 ar
    13    7    8 ar
    14    8    9 ar
    15    8   32 1
    16    9   10 ar
    17    9   33 1
    18   10   11 ar
    19   10   34 1
    20   11   12 ar
    21   11   35 1
    22   12   13 1
    23   13   14 1
    24   14   36 1
    25   14   37 1
    26   14   38 1
    27   15   16 1
    28   16   17 2
    29   16   18 1
    30   18   26 1
    31   18   19 2
    32   19   24 ar
    33   19   20 ar
    34   20   21 ar
    35   20   39 1
    36   21   22 ar
    37   21   40 1
    38   22   23 ar
    39   22   41 1
    40   23   24 ar
    41   23   42 1
    42   24   25 2
    43   25   26 1
    44   26   27 1
@<TRIPOS>MOLECULE
ZINC03516690
   46    48     0     0     0
SMALL
USER_CHARGES

@<TRIPOS>ATOM
      1 C1         -2.0903    0.7256   -1.6204 C.3       1 <0>        -0.2169
      2 C2         -1.7982    2.2037   -1.3541 C.3       1 <0>         0.0132
      3 O1         -2.3250    2.5744   -0.0528 O.3       1 <0>        -0.2831
      4 C3         -2.1501    3.8509    0.3362 C.2       1 <0>         0.3955
      5 O2         -1.5732    4.6339   -0.3915 O.2       1 <0>        -0.3447
      6 N1         -2.6151    4.2604    1.5331 N.am      1 <0>        -0.3411
      7 C4         -2.4399    5.5387    1.9226 C.2       1 <0>         0.2877
      8 O3         -1.8641    6.3202    1.1963 O.2       1 <0>        -0.2653
      9 C5         -2.9598    5.9966    3.2609 C.3       1 <0>        -0.0184
     10 N2         -2.6459    7.4153    3.4473 N.am      1 <0>        -0.3080
     11 C6         -1.5147    7.8715    4.0206 C.2       1 <0>         0.3293
     12 O4         -0.5996    7.2103    4.4624 O.2       1 <0>        -0.2951
     13 C7         -1.6237    9.3832    3.9961 C.3       1 <0>         0.0776
     14 N3         -2.9293    9.6259    3.3587 N.am      1 <0>        -0.3900
     15 C8         -3.4494    8.4182    3.0747 C.2       1 <0>         0.4130
     16 O5         -4.5285    8.2561    2.5395 O.2       1 <0>        -0.3706
     17 C9         -0.4961    9.9982    3.1648 C.3       1 <0>        -0.2182
     18 C10        -1.6077    9.9345    5.3986 C.ar      1 <0>        -0.0884
     19 C11        -2.6887   10.6057    5.8822 C.ar      1 <0>        -0.1075
     20 C12        -2.6945   11.1176    7.1782 C.ar      1 <0>        -0.1318
     21 C13        -1.6151   10.9710    7.9944 C.ar      1 <0>        -0.1024
     22 C14        -0.4785   10.2891    7.5282 C.ar      1 <0>        -0.0343
     23 C15        -0.4747    9.7634    6.2118 C.ar      1 <0>        -0.0233
     24 C16         0.6625    9.0817    5.7455 C.ar      1 <0>        -0.1180
     25 C17         1.7417    8.9358    6.5616 C.ar      1 <0>        -0.1209
     26 C18         1.7380    9.4527    7.8560 C.ar      1 <0>        -0.1201
     27 C19         0.6549   10.1184    8.3416 C.ar      1 <0>        -0.1211
     28 H1         -3.1674    0.5593   -1.6036 H         1 <0>         0.0869
     29 H2         -1.6948    0.4474   -2.5973 H         1 <0>         0.0936
     30 H3         -1.6167    0.1172   -0.8500 H         1 <0>         0.0865
     31 H4         -0.7211    2.3700   -1.3709 H         1 <0>         0.0934
     32 H5         -2.2718    2.8122   -2.1246 H         1 <0>         0.0942
     33 H6         -3.0758    3.6351    2.1141 H         1 <0>         0.2360
     34 H7         -4.0400    5.8554    3.2987 H         1 <0>         0.1373
     35 H8         -2.4893    5.4133    4.0524 H         1 <0>         0.1310
     36 H9         -3.3348   10.4884    3.1783 H         1 <0>         0.2788
     37 H10        -0.7209   11.0462    2.9665 H         1 <0>         0.0938
     38 H11         0.4421    9.9256    3.7149 H         1 <0>         0.1114
     39 H12        -0.4062    9.4610    2.2206 H         1 <0>         0.1026
     40 H13        -3.5564   10.7400    5.2534 H         1 <0>         0.1327
     41 H14        -3.5670   11.6419    7.5391 H         1 <0>         0.1322
     42 H15        -1.6320   11.3771    8.9950 H         1 <0>         0.1347
     43 H16         0.6798    8.6758    4.7449 H         1 <0>         0.1638
     44 H17         2.6144    8.4118    6.2007 H         1 <0>         0.1326
     45 H18         2.6078    9.3232    8.4830 H         1 <0>         0.1288
     46 H19         0.6661   10.5132    9.3467 H         1 <0>         0.1326
@<TRIPOS>BOND
     1    1    2 1
     2    1   28 1
     3    1   29 1
     4    1   30 1
     5    2    3 1
     6    2   31 1
     7    2   32 1
     8    3    4 1
     9    4    5 2
    10    4    6 am
    11    6    7 am
    12    6   33 1
    13    7    8 2
    14    7    9 1
    15    9   10 1
    16    9   34 1
    17    9   35 1
    18   10   15 am
    19   10   11 am
    20   11   12 2
    21   11   13 1
    22   13   14 1
    23   13   17 1
    24   13   18 1
    25   14   15 am
    26   14   36 1
    27   15   16 2
    28   17   37 1
    29   17   38 1
    30   17   39 1
    31   18   23 ar
    32   18   19 ar
    33   19   20 ar
    34   19   40 1
    35   20   21 ar
    36   20   41 1
    37   21   22 ar
    38   21   42 1
    39   22   27 ar
    40   22   23 ar
    41   23   24 ar
    42   24   25 ar
    43   24   43 1
    44   25   26 ar
    45   25   44 1
    46   26   27 ar
    47   26   45 1
    48   27   46 1
@<TRIPOS>MOLECULE
ZINC03518222
   44    47     0     0     0
SMALL
USER_CHARGES

@<TRIPOS>ATOM
      1 C1          6.8854    5.5679   -3.6316 C.3       1 <0>        -0.0514
      2 O1          5.6631    4.8033   -3.8038 O.3       1 <0>        -0.2509
      3 C2          5.7706    3.4592   -3.7631 C.2       1 <0>         0.3912
      4 O2          6.8570    2.9411   -3.5883 O.2       1 <0>        -0.3473
      5 C3          4.5790    2.6238   -3.9294 C.2       1 <0>        -0.0868
      6 C4          4.5467    1.2579   -3.9096 C.2       1 <0>        -0.1292
      7 C5          3.2090    0.8833   -4.1065 C.2       1 <0>        -0.2095
      8 C6          2.4918    2.0217   -4.2363 C.2       1 <0>        -0.0565
      9 O3          3.3215    3.0679   -4.1348 O.3       1 <0>        -0.0134
     10 C7          1.0042    2.1004   -4.4642 C.3       1 <0>         0.0805
     11 N1          0.3143    2.1506   -3.1728 N.am      1 <0>        -0.3276
     12 C8         -0.1050    1.0600   -2.4943 C.2       1 <0>         0.3100
     13 O4          0.0126   -0.1009   -2.8233 O.2       1 <0>        -0.3014
     14 C9         -0.7527    1.5927   -1.2315 C.3       1 <0>        -0.0180
     15 H1         -1.8045    1.3096   -1.1913 H         1 <0>         0.1382
     16 N2         -0.6137    3.0538   -1.3568 N.am      1 <0>        -0.3953
     17 C10         0.0209    3.2815   -2.5209 C.2       1 <0>         0.4001
     18 O5          0.2969    4.3907   -2.9343 O.2       1 <0>        -0.3650
     19 C11        -0.0127    1.0858    0.0080 C.3       1 <0>        -0.0867
     20 C12        -0.7181    1.5718    1.2479 C.2       1 <0>        -0.1783
     21 C13        -0.4197    2.6718    1.9570 C.2       1 <0>        -0.0651
     22 N3         -1.2768    2.7905    3.0169 N.pl3     1 <0>        -0.1977
     23 H2         -1.2577    3.5060    3.6716 H         1 <0>         0.2437
     24 C14        -2.1705    1.7431    3.0158 C.ar      1 <0>         0.0069
     25 C15        -1.8635    0.9368    1.9043 C.ar      1 <0>        -0.0884
     26 C16        -2.6110   -0.2147    1.6515 C.ar      1 <0>        -0.0817
     27 C17        -3.6453   -0.5477    2.4803 C.ar      1 <0>        -0.1515
     28 C18        -3.9558    0.2474    3.5747 C.ar      1 <0>        -0.1051
     29 C19        -3.2277    1.3854    3.8458 C.ar      1 <0>        -0.1413
     30 H3          6.6585    6.6326   -3.6854 H         1 <0>         0.1077
     31 H4          7.3236    5.3384   -2.6603 H         1 <0>         0.0824
     32 H5          7.5915    5.3066   -4.4197 H         1 <0>         0.0829
     33 H6          5.3878    0.5951   -3.7695 H         1 <0>         0.1766
     34 H7          2.8246   -0.1251   -4.1471 H         1 <0>         0.1721
     35 H8          0.6745    1.2215   -5.0183 H         1 <0>         0.1335
     36 H9          0.7712    2.9988   -5.0358 H         1 <0>         0.1343
     37 H10        -0.9204    3.7216   -0.7236 H         1 <0>         0.2783
     38 H11         0.0021   -0.0041    0.0020 H         1 <0>         0.1170
     39 H12         1.0099    1.4631    0.0003 H         1 <0>         0.1003
     40 H13         0.3786    3.3613    1.7250 H         1 <0>         0.1695
     41 H14        -2.3753   -0.8380    0.8016 H         1 <0>         0.1317
     42 H15        -4.2259   -1.4364    2.2819 H         1 <0>         0.1314
     43 H16        -4.7765   -0.0285    4.2202 H         1 <0>         0.1322
     44 H17        -3.4773    1.9977    4.6997 H         1 <0>         0.1274
@<TRIPOS>BOND
     1    1    2 1
     2    1   30 1
     3    1   31 1
     4    1   32 1
     5    2    3 1
     6    3    4 2
     7    3    5 1
     8    5    9 1
     9    5    6 2
    10    6    7 1
    11    6   33 1
    12    7    8 2
    13    7   34 1
    14    8    9 1
    15    8   10 1
    16   10   11 1
    17   10   35 1
    18   10   36 1
    19   11   17 am
    20   11   12 am
    21   12   13 2
    22   12   14 1
    23   14   15 1
    24   14   16 1
    25   14   19 1
    26   16   17 am
    27   16   37 1
    28   17   18 2
    29   19   20 1
    30   19   38 1
    31   19   39 1
    32   20   25 1
    33   20   21 2
    34   21   22 1
    35   21   40 1
    36   22   23 1
    37   22   24 1
    38   24   29 ar
    39   24   25 ar
    40   25   26 ar
    41   26   27 ar
    42   26   41 1
    43   27   28 ar
    44   27   42 1
    45   28   29 ar
    46   28   43 1
    47   29   44 1
@<TRIPOS>MOLECULE
ZINC03518223
   44    47     0     0     0
SMALL
USER_CHARGES

@<TRIPOS>ATOM
      1 C1         -5.5978    1.7729   -8.7405 C.3       1 <0>        -0.0514
      2 O1         -4.5198    1.3755   -7.8527 O.3       1 <0>        -0.2503
      3 C2         -3.3495    2.0348   -7.9769 C.2       1 <0>         0.3915
      4 O2         -3.2340    2.9179   -8.8052 O.2       1 <0>        -0.3479
      5 C3         -2.2179    1.6872   -7.1143 C.2       1 <0>        -0.0858
      6 C4         -0.9832    2.2720   -7.1348 C.2       1 <0>        -0.1297
      7 C5         -0.2192    1.6359   -6.1447 C.2       1 <0>        -0.2098
      8 C6         -1.0076    0.6968   -5.5757 C.2       1 <0>        -0.0562
      9 O3         -2.2118    0.7330   -6.1603 O.3       1 <0>        -0.0125
     10 C7         -0.6003   -0.2334   -4.4622 C.3       1 <0>         0.0806
     11 N1         -0.8928    0.3934   -3.1707 N.am      1 <0>        -0.3277
     12 C8         -0.0245    1.1772   -2.4944 C.2       1 <0>         0.3099
     13 O4          1.1006    1.4842   -2.8256 O.2       1 <0>        -0.3045
     14 C9         -0.7527    1.5927   -1.2315 C.3       1 <0>        -0.0170
     15 H1         -0.8659    2.6761   -1.1929 H         1 <0>         0.1337
     16 N2         -2.0668    0.9383   -1.3543 N.am      1 <0>        -0.3923
     17 C10        -2.0529    0.2624   -2.5173 C.2       1 <0>         0.3987
     18 O5         -2.9896   -0.3938   -2.9286 O.2       1 <0>        -0.3640
     19 C11        -0.0127    1.0858    0.0080 C.3       1 <0>        -0.0869
     20 C12        -0.7181    1.5718    1.2479 C.2       1 <0>        -0.1804
     21 C13        -0.4157    2.6684    1.9606 C.2       1 <0>        -0.0585
     22 N3         -1.2758    2.7897    3.0178 N.pl3     1 <0>        -0.1971
     23 H2         -1.2560    3.5045    3.6732 H         1 <0>         0.2437
     24 C14        -2.1699    1.7425    3.0164 C.ar      1 <0>         0.0065
     25 C15        -1.8598    0.9337    1.9076 C.ar      1 <0>        -0.0923
     26 C16        -2.6106   -0.2150    1.6516 C.ar      1 <0>        -0.0910
     27 C17        -3.6441   -0.5487    2.4811 C.ar      1 <0>        -0.1483
     28 C18        -3.9540    0.2458    3.5760 C.ar      1 <0>        -0.1057
     29 C19        -3.2263    1.3840    3.8470 C.ar      1 <0>        -0.1402
     30 H3         -5.8350    2.8241   -8.5763 H         1 <0>         0.0827
     31 H4         -5.2883    1.6277   -9.7755 H         1 <0>         0.0824
     32 H5         -6.4794    1.1653   -8.5363 H         1 <0>         0.1078
     33 H6         -0.6593    3.0716   -7.7845 H         1 <0>         0.1762
     34 H7          0.8067    1.8539   -5.8872 H         1 <0>         0.1715
     35 H8          0.4678   -0.4389   -4.5328 H         1 <0>         0.1326
     36 H9         -1.1563   -1.1671   -4.5471 H         1 <0>         0.1341
     37 H10        -2.7991    0.9852   -0.7199 H         1 <0>         0.2854
     38 H11         0.0021   -0.0041    0.0020 H         1 <0>         0.1053
     39 H12         1.0099    1.4631    0.0003 H         1 <0>         0.1083
     40 H13         0.3861    3.3549    1.7318 H         1 <0>         0.1686
     41 H14        -2.3754   -0.8378    0.8012 H         1 <0>         0.1351
     42 H15        -4.2243   -1.4379    2.2830 H         1 <0>         0.1339
     43 H16        -4.7737   -0.0311    4.2225 H         1 <0>         0.1330
     44 H17        -3.4755    1.9958    4.7013 H         1 <0>         0.1278
@<TRIPOS>BOND
     1    1    2 1
     2    1   30 1
     3    1   31 1
     4    1   32 1
     5    2    3 1
     6    3    4 2
     7    3    5 1
     8    5    9 1
     9    5    6 2
    10    6    7 1
    11    6   33 1
    12    7    8 2
    13    7   34 1
    14    8    9 1
    15    8   10 1
    16   10   11 1
    17   10   35 1
    18   10   36 1
    19   11   17 am
    20   11   12 am
    21   12   13 2
    22   12   14 1
    23   14   15 1
    24   14   16 1
    25   14   19 1
    26   16   17 am
    27   16   37 1
    28   17   18 2
    29   19   20 1
    30   19   38 1
    31   19   39 1
    32   20   25 1
    33   20   21 2
    34   21   22 1
    35   21   40 1
    36   22   23 1
    37   22   24 1
    38   24   29 ar
    39   24   25 ar
    40   25   26 ar
    41   26   27 ar
    42   26   41 1
    43   27   28 ar
    44   27   42 1
    45   28   29 ar
    46   28   43 1
    47   29   44 1
@<TRIPOS>MOLECULE
ZINC03521367
   42    43     0     0     0
SMALL
USER_CHARGES

@<TRIPOS>ATOM
      1 C1        -13.5878    7.1097   -0.7619 C.3       1 <0>        -0.2377
      2 C2        -12.1016    7.2035   -0.5302 C.2       1 <0>         0.2985
      3 O1        -11.5261    6.3258    0.0778 O.2       1 <0>        -0.3458
      4 N1        -11.4121    8.2625   -0.9985 N.am      1 <0>        -0.3308
      5 C3        -10.0181    8.2986   -0.8784 C.ar      1 <0>         0.0477
      6 C4         -9.3682    9.5125   -0.6887 C.ar      1 <0>        -0.1316
      7 C5         -7.9918    9.5538   -0.5694 C.ar      1 <0>        -0.1277
      8 C6         -7.2536    8.3894   -0.6324 C.ar      1 <0>        -0.0911
      9 C7         -7.8964    7.1653   -0.8275 C.ar      1 <0>        -0.0977
     10 C8         -9.2861    7.1240   -0.9480 C.ar      1 <0>        -0.0660
     11 C9         -7.1086    5.9176   -0.9001 C.2       1 <0>         0.3533
     12 O2         -7.6703    4.8533   -1.0649 O.2       1 <0>        -0.3573
     13 O3         -5.7672    5.9603   -0.7836 O.3       1 <0>        -0.2352
     14 C10        -5.0579    4.6959   -0.8645 C.3       1 <0>        -0.0265
     15 C11        -3.5783    4.9394   -0.7142 C.2       1 <0>         0.2878
     16 O4         -3.1627    6.0671   -0.5546 O.2       1 <0>        -0.2588
     17 N2         -2.7172    3.9035   -0.7572 N.am      1 <0>        -0.3532
     18 C12        -1.3939    4.1213   -0.6228 C.2       1 <0>         0.3774
     19 O5         -0.9838    5.2386   -0.3710 O.2       1 <0>        -0.3093
     20 C13        -0.4492    3.0122   -0.7798 C.2       1 <0>        -0.1631
     21 C14        -0.7736    1.6844   -0.9695 C.2       1 <0>        -0.1602
     22 C15         0.4302    0.9805   -1.0690 C.2       1 <0>        -0.2151
     23 C16         1.4434    1.8708   -0.9413 C.2       1 <0>        -0.1070
     24 N3          0.9244    3.1036   -0.7607 N.pl3     1 <0>        -0.0665
     25 C17         1.6954    4.3358   -0.5775 C.3       1 <0>        -0.0780
     26 H1        -13.7771    6.5872   -1.6995 H         1 <0>         0.1084
     27 H2        -14.0497    6.5616    0.0593 H         1 <0>         0.1195
     28 H3        -14.0115    8.1127   -0.8129 H         1 <0>         0.0826
     29 H4        -11.8819    8.9997   -1.4189 H         1 <0>         0.2331
     30 H5         -9.9407   10.4266   -0.6340 H         1 <0>         0.1321
     31 H6         -7.4925   10.5001   -0.4222 H         1 <0>         0.1394
     32 H7         -6.1787    8.4254   -0.5346 H         1 <0>         0.1582
     33 H8         -9.7893    6.1798   -1.0953 H         1 <0>         0.1829
     34 H9         -5.2533    4.2309   -1.8308 H         1 <0>         0.1098
     35 H10        -5.4003    4.0356   -0.0677 H         1 <0>         0.1122
     36 H11        -3.0497    3.0013   -0.8849 H         1 <0>         0.2339
     37 H12        -1.7683    1.2681   -1.0296 H         1 <0>         0.1431
     38 H13         0.5339   -0.0837   -1.2211 H         1 <0>         0.1525
     39 H14         2.4962    1.6320   -0.9740 H         1 <0>         0.1701
     40 H15         1.7994    4.8452   -1.5355 H         1 <0>         0.0965
     41 H16         1.1772    4.9874    0.1261 H         1 <0>         0.1307
     42 H17         2.6832    4.0916   -0.1867 H         1 <0>         0.0888
@<TRIPOS>BOND
     1    1    2 1
     2    1   26 1
     3    1   27 1
     4    1   28 1
     5    2    3 2
     6    2    4 am
     7    4    5 1
     8    4   29 1
     9    5   10 ar
    10    5    6 ar
    11    6    7 ar
    12    6   30 1
    13    7    8 ar
    14    7   31 1
    15    8    9 ar
    16    8   32 1
    17    9   10 ar
    18    9   11 1
    19   10   33 1
    20   11   12 2
    21   11   13 1
    22   13   14 1
    23   14   15 1
    24   14   34 1
    25   14   35 1
    26   15   16 2
    27   15   17 am
    28   17   18 am
    29   17   36 1
    30   18   19 2
    31   18   20 1
    32   20   24 1
    33   20   21 2
    34   21   22 1
    35   21   37 1
    36   22   23 2
    37   22   38 1
    38   23   24 1
    39   23   39 1
    40   24   25 1
    41   25   40 1
    42   25   41 1
    43   25   42 1
@<TRIPOS>MOLECULE
ZINC03521633
   38    40     0     0     0
SMALL
USER_CHARGES

@<TRIPOS>ATOM
      1 C1          2.3191   -4.1686   -0.0425 C.3       1 <0>        -0.2169
      2 C2          2.4990   -2.6493   -0.0360 C.3       1 <0>         0.0130
      3 O1          1.1965   -2.0077   -0.0201 O.3       1 <0>        -0.2810
      4 C3          1.1783   -0.6620   -0.0127 C.2       1 <0>         0.3951
      5 O2          2.2217   -0.0404   -0.0194 O.2       1 <0>        -0.3438
      6 N1          0.0021   -0.0041    0.0020 N.am      1 <0>        -0.3377
      7 C4         -0.0162    1.3436    0.0094 C.2       1 <0>         0.3200
      8 O3          1.0253    1.9639    0.0028 O.2       1 <0>        -0.2670
      9 C5         -1.3314    2.0792    0.0197 C.3       1 <0>        -0.3250
     10 S1         -1.0248    3.8631    0.0279 S.3       1 <0>         0.3873
     11 C6         -2.6831    4.4585    0.0390 C.2       1 <0>        -0.2105
     12 N2         -3.7704    3.7257    0.0406 N.2       1 <0>        -0.1210
     13 N3         -4.8041    4.4915    0.0495 N.2       1 <0>        -0.0979
     14 C7         -4.4179    5.7451    0.0539 C.2       1 <0>         0.0521
     15 O4         -3.0664    5.7506    0.0533 O.3       1 <0>        -0.0808
     16 C8         -5.2966    6.9302    0.0646 C.2       1 <0>        -0.1098
     17 C9         -4.9050    8.2311    0.0757 C.2       1 <0>        -0.0260
     18 N4         -6.0021    9.0421    0.0808 N.pl3     1 <0>        -0.1884
     19 H1         -5.9754   10.0117    0.0865 H         1 <0>         0.2474
     20 C10        -7.1542    8.2851    0.0819 C.ar      1 <0>         0.0004
     21 C11        -6.7697    6.9337    0.0719 C.ar      1 <0>        -0.0550
     22 C12        -7.7388    5.9325    0.0702 C.ar      1 <0>        -0.0690
     23 C13        -9.0730    6.2749    0.0787 C.ar      1 <0>        -0.1513
     24 C14        -9.4539    7.6091    0.0891 C.ar      1 <0>        -0.1034
     25 C15        -8.5069    8.6097    0.0904 C.ar      1 <0>        -0.1432
     26 H2          3.2969   -4.6502   -0.0544 H         1 <0>         0.0944
     27 H3          1.7747   -4.4738    0.8511 H         1 <0>         0.0873
     28 H4          1.7577   -4.4643   -0.9287 H         1 <0>         0.0873
     29 H5          3.0435   -2.3440   -0.9296 H         1 <0>         0.0941
     30 H6          3.0605   -2.3536    0.8502 H         1 <0>         0.0941
     31 H7         -0.8313   -0.5005    0.0073 H         1 <0>         0.2409
     32 H8         -1.9035    1.8130   -0.8691 H         1 <0>         0.1425
     33 H9         -1.8951    1.8033    0.9108 H         1 <0>         0.1422
     34 H10        -3.8801    8.5718    0.0780 H         1 <0>         0.1787
     35 H11        -7.4454    4.8932    0.0622 H         1 <0>         0.1565
     36 H12        -9.8263    5.5010    0.0774 H         1 <0>         0.1344
     37 H13       -10.5030    7.8657    0.0957 H         1 <0>         0.1327
     38 H14        -8.8143    9.6450    0.0978 H         1 <0>         0.1276
@<TRIPOS>BOND
     1    1    2 1
     2    1   26 1
     3    1   27 1
     4    1   28 1
     5    2    3 1
     6    2   29 1
     7    2   30 1
     8    3    4 1
     9    4    5 2
    10    4    6 am
    11    6    7 am
    12    6   31 1
    13    7    8 2
    14    7    9 1
    15    9   10 1
    16    9   32 1
    17    9   33 1
    18   10   11 1
    19   11   15 1
    20   11   12 2
    21   12   13 1
    22   13   14 2
    23   14   15 1
    24   14   16 1
    25   16   21 1
    26   16   17 2
    27   17   18 1
    28   17   34 1
    29   18   19 1
    30   18   20 1
    31   20   25 ar
    32   20   21 ar
    33   21   22 ar
    34   22   23 ar
    35   22   35 1
    36   23   24 ar
    37   23   36 1
    38   24   25 ar
    39   24   37 1
    40   25   38 1
@<TRIPOS>MOLECULE
ZINC03523313
   39    40     0     0     0
SMALL
USER_CHARGES

@<TRIPOS>ATOM
      1 C1          1.5150    4.3802   -0.0066 C.3       1 <0>        -0.0785
      2 N1          0.8389    3.0805   -0.0105 N.pl3     1 <0>        -0.0663
      3 C2          1.4491    1.8767   -0.0274 C.2       1 <0>        -0.1065
      4 C3          0.5057    0.9043   -0.0201 C.2       1 <0>        -0.2150
      5 C4         -0.7476    1.5235   -0.0030 C.2       1 <0>        -0.1603
      6 C5         -0.5240    2.8853   -0.0004 C.2       1 <0>        -0.1634
      7 C6         -1.5494    3.9319    0.0152 C.2       1 <0>         0.3775
      8 O1         -1.2244    5.1006    0.1076 O.2       1 <0>        -0.3089
      9 N2         -2.8526    3.5998   -0.0729 N.am      1 <0>        -0.3532
     10 C7         -3.7893    4.5647   -0.1636 C.2       1 <0>         0.2877
     11 O2         -3.4595    5.7314   -0.1660 O.2       1 <0>        -0.2580
     12 C8         -5.2465    4.1934   -0.2621 C.3       1 <0>        -0.0269
     13 O3         -6.0488    5.4005   -0.3485 O.3       1 <0>        -0.2335
     14 C9         -7.3832    5.2425   -0.4429 C.2       1 <0>         0.3536
     15 O4         -7.8635    4.1268   -0.4527 O.2       1 <0>        -0.3661
     16 C10        -8.2625    6.4261   -0.5344 C.ar      1 <0>        -0.1109
     17 C11        -7.7142    7.7101   -0.5176 C.ar      1 <0>        -0.0760
     18 C12        -8.5407    8.8107   -0.6092 C.ar      1 <0>        -0.1241
     19 C13        -9.9109    8.6448   -0.7060 C.ar      1 <0>        -0.0449
     20 C14       -10.4614    7.3754   -0.7174 C.ar      1 <0>        -0.1252
     21 C15        -9.6461    6.2659   -0.6323 C.ar      1 <0>        -0.0678
     22 C16       -10.8079    9.8521   -0.7999 C.3       1 <0>         0.0340
     23 O5        -11.1905   10.2646    0.5137 O.3       1 <0>        -0.3455
     24 H1          1.5888    4.7544   -1.0277 H         1 <0>         0.0964
     25 H2          0.9442    5.0849    0.5981 H         1 <0>         0.1312
     26 H3          2.5149    4.2683    0.4126 H         1 <0>         0.0890
     27 H4          2.5168    1.7148   -0.0399 H         1 <0>         0.1704
     28 H5          0.6892   -0.1600   -0.0266 H         1 <0>         0.1526
     29 H6         -1.7082    1.0300    0.0063 H         1 <0>         0.1428
     30 H7         -3.1165    2.6664   -0.0710 H         1 <0>         0.2338
     31 H8         -5.4072    3.5858   -1.1527 H         1 <0>         0.1102
     32 H9         -5.5375    3.6262    0.6220 H         1 <0>         0.1112
     33 H10        -6.6452    7.8411   -0.4376 H         1 <0>         0.1588
     34 H11        -8.1175    9.8044   -0.6012 H         1 <0>         0.1408
     35 H12       -11.5317    7.2529   -0.7935 H         1 <0>         0.1401
     36 H13       -10.0770    5.2756   -0.6416 H         1 <0>         0.1548
     37 H14       -10.2742   10.6637   -1.2945 H         1 <0>         0.0674
     38 H15       -11.6985    9.5992   -1.3751 H         1 <0>         0.0664
     39 H16       -11.7698   11.0387    0.5298 H         1 <0>         0.2122
@<TRIPOS>BOND
     1    1    2 1
     2    1   24 1
     3    1   25 1
     4    1   26 1
     5    2    6 1
     6    2    3 1
     7    3    4 2
     8    3   27 1
     9    4    5 1
    10    4   28 1
    11    5    6 2
    12    5   29 1
    13    6    7 1
    14    7    8 2
    15    7    9 am
    16    9   10 am
    17    9   30 1
    18   10   11 2
    19   10   12 1
    20   12   13 1
    21   12   31 1
    22   12   32 1
    23   13   14 1
    24   14   15 2
    25   14   16 1
    26   16   21 ar
    27   16   17 ar
    28   17   18 ar
    29   17   33 1
    30   18   19 ar
    31   18   34 1
    32   19   20 ar
    33   19   22 1
    34   20   21 ar
    35   20   35 1
    36   21   36 1
    37   22   23 1
    38   22   37 1
    39   22   38 1
    40   23   39 1
@<TRIPOS>MOLECULE
ZINC03523894
   42    44     0     0     0
SMALL
USER_CHARGES

@<TRIPOS>ATOM
      1 C1         -3.1394   -1.3837    5.4520 C.3       1 <0>        -0.1758
      2 C2         -2.6576   -1.2246    4.0330 C.ar      1 <0>        -0.0628
      3 C3         -3.4438   -0.5665    3.1058 C.ar      1 <0>        -0.1278
      4 C4         -3.0020   -0.4210    1.8040 C.ar      1 <0>        -0.0810
      5 C5         -1.7740   -0.9335    1.4295 C.ar      1 <0>        -0.0994
      6 C6         -0.9902   -1.5962    2.3554 C.ar      1 <0>        -0.1010
      7 C7         -1.4296   -1.7372    3.6584 C.ar      1 <0>        -0.1327
      8 C8         -1.2926   -0.7753    0.0102 C.3       1 <0>        -0.1988
      9 H1         -1.9793   -0.2795   -0.5214 H         1 <0>         0.1298
     10 C9          0.0021   -0.0041    0.0020 C.2       1 <0>         0.2946
     11 O1          1.0602   -0.5960   -0.0113 O.2       1 <0>        -0.2786
     12 C10        -0.0179    1.4674    0.0101 C.ar      1 <0>        -0.1591
     13 C11        -1.2364    2.1538    0.0196 C.ar      1 <0>        -0.0792
     14 C12        -1.2467    3.5326    0.0330 C.ar      1 <0>        -0.1430
     15 C13        -0.0554    4.2372    0.0259 C.ar      1 <0>        -0.0407
     16 C14         1.1544    3.5653    0.0102 C.ar      1 <0>        -0.1457
     17 C15         1.1815    2.1867    0.0025 C.ar      1 <0>        -0.0594
     18 C16        -0.0759    5.7441    0.0347 C.3       1 <0>        -0.1807
     19 S1         -1.0259   -2.4125   -0.7239 S.3       1 <0>         0.2728
     20 C17        -2.6373   -3.1233   -0.7773 C.2       1 <0>        -0.1883
     21 N1         -2.9532   -4.3626   -1.2595 N.pl3     1 <0>        -0.2477
     22 H2         -2.3297   -5.0053   -1.6324 H         1 <0>         0.2444
     23 C18        -4.3010   -4.5381   -1.1219 C.2       1 <0>         0.1216
     24 N2         -4.7986   -3.4512   -0.5853 N.2       1 <0>        -0.1644
     25 N3         -3.7446   -2.5544   -0.3668 N.2       1 <0>        -0.0989
     26 N4         -5.0188   -5.6685   -1.4908 N.pl3     1 <0>        -0.4009
     27 H3         -3.7035   -2.3120    5.5422 H         1 <0>         0.0885
     28 H4         -2.2829   -1.4121    6.1255 H         1 <0>         0.0805
     29 H5         -3.7804   -0.5421    5.7146 H         1 <0>         0.0812
     30 H6         -4.4033   -0.1664    3.3983 H         1 <0>         0.1334
     31 H7         -3.6164    0.0929    1.0795 H         1 <0>         0.1368
     32 H8         -0.0327   -2.0005    2.0617 H         1 <0>         0.1455
     33 H9         -0.8156   -2.2516    4.3827 H         1 <0>         0.1316
     34 H10        -2.1667    1.6054    0.0210 H         1 <0>         0.1393
     35 H11        -2.1868    4.0641    0.0449 H         1 <0>         0.1361
     36 H12         2.0798    4.1222    0.0044 H         1 <0>         0.1367
     37 H13         2.1264    1.6638   -0.0090 H         1 <0>         0.1520
     38 H14        -0.0908    6.1132   -0.9907 H         1 <0>         0.0912
     39 H15        -0.9656    6.0923    0.5593 H         1 <0>         0.0856
     40 H16         0.8141    6.1165    0.5420 H         1 <0>         0.0856
     41 H17        -5.9790   -5.6987   -1.3561 H         1 <0>         0.2542
     42 H18        -4.5600   -6.4278   -1.8830 H         1 <0>         0.2245
@<TRIPOS>BOND
     1    1    2 1
     2    1   27 1
     3    1   28 1
     4    1   29 1
     5    2    7 ar
     6    2    3 ar
     7    3    4 ar
     8    3   30 1
     9    4    5 ar
    10    4   31 1
    11    5    6 ar
    12    5    8 1
    13    6    7 ar
    14    6   32 1
    15    7   33 1
    16    8    9 1
    17    8   10 1
    18    8   19 1
    19   10   11 2
    20   10   12 1
    21   12   17 ar
    22   12   13 ar
    23   13   14 ar
    24   13   34 1
    25   14   15 ar
    26   14   35 1
    27   15   16 ar
    28   15   18 1
    29   16   17 ar
    30   16   36 1
    31   17   37 1
    32   18   38 1
    33   18   39 1
    34   18   40 1
    35   19   20 1
    36   20   25 2
    37   20   21 1
    38   21   22 1
    39   21   23 1
    40   23   24 2
    41   23   26 1
    42   24   25 1
    43   26   41 1
    44   26   42 1
@<TRIPOS>MOLECULE
ZINC03523895
   42    44     0     0     0
SMALL
USER_CHARGES

@<TRIPOS>ATOM
      1 C1          2.9846    3.2537   -5.3103 C.3       1 <0>        -0.1773
      2 C2          2.5416    2.9184   -3.9095 C.ar      1 <0>        -0.0610
      3 C3          3.3480    2.1444   -3.0961 C.ar      1 <0>        -0.1281
      4 C4          2.9418    1.8371   -1.8110 C.ar      1 <0>        -0.0922
      5 C5          1.7290    2.3036   -1.3394 C.ar      1 <0>        -0.0834
      6 C6          0.9200    3.0729   -2.1547 C.ar      1 <0>        -0.1295
      7 C7          1.3286    3.3845   -3.4380 C.ar      1 <0>        -0.1261
      8 C8          1.2859    1.9683    0.0614 C.3       1 <0>        -0.1833
      9 H1          1.9830    1.4057    0.5058 H         1 <0>         0.1436
     10 C9         -0.0144    1.2083    0.0087 C.2       1 <0>         0.2835
     11 O1         -0.0087   -0.0042    0.0173 O.2       1 <0>        -0.2563
     12 C10        -1.2907    1.9378   -0.0594 C.ar      1 <0>        -0.1608
     13 C11        -2.5020    1.2458    0.0404 C.ar      1 <0>        -0.0523
     14 C12        -3.6936    1.9372   -0.0180 C.ar      1 <0>        -0.1492
     15 C13        -3.6932    3.3109   -0.1869 C.ar      1 <0>        -0.0441
     16 C14        -2.4988    4.0021   -0.2926 C.ar      1 <0>        -0.1542
     17 C15        -1.2988    3.3259   -0.2298 C.ar      1 <0>        -0.0945
     18 C16        -5.0002    4.0579   -0.2555 C.3       1 <0>        -0.1795
     19 S1          1.0532    3.5000    1.0050 S.3       1 <0>         0.2278
     20 C17         0.6871    2.9442    2.6364 C.2       1 <0>        -0.1929
     21 N1          0.4366    3.7399    3.7191 N.pl3     1 <0>        -0.2478
     22 H2          0.4291    4.7099    3.7243 H         1 <0>         0.2431
     23 C18         0.1962    2.9294    4.7921 C.2       1 <0>         0.1222
     24 N2          0.3015    1.6860    4.3925 N.2       1 <0>        -0.1569
     25 N3          0.6126    1.6949    3.0265 N.2       1 <0>        -0.0879
     26 N4         -0.1025    3.3497    6.0819 N.pl3     1 <0>        -0.4003
     27 H3          2.6292    2.4859   -5.9974 H         1 <0>         0.0905
     28 H4          2.5721    4.2201   -5.6003 H         1 <0>         0.0829
     29 H5          4.0732    3.2979   -5.3463 H         1 <0>         0.0835
     30 H6          4.2955    1.7800   -3.4646 H         1 <0>         0.1358
     31 H7          3.5718    1.2324   -1.1756 H         1 <0>         0.1393
     32 H8         -0.0295    3.4336   -1.7877 H         1 <0>         0.1551
     33 H9          0.6984    3.9889   -4.0736 H         1 <0>         0.1344
     34 H10        -2.5039    0.1733    0.1677 H         1 <0>         0.1545
     35 H11        -4.6297    1.4048    0.0640 H         1 <0>         0.1353
     36 H12        -2.5067    5.0740   -0.4242 H         1 <0>         0.1304
     37 H13        -0.3676    3.8667   -0.3118 H         1 <0>         0.1599
     38 H14        -5.3332    4.1130   -1.2919 H         1 <0>         0.0893
     39 H15        -5.7491    3.5353    0.3395 H         1 <0>         0.0850
     40 H16        -4.8635    5.0659    0.1363 H         1 <0>         0.0818
     41 H17        -0.2548    2.6958    6.7820 H         1 <0>         0.2554
     42 H18        -0.1587    4.2970    6.2825 H         1 <0>         0.2242
@<TRIPOS>BOND
     1    1    2 1
     2    1   27 1
     3    1   28 1
     4    1   29 1
     5    2    7 ar
     6    2    3 ar
     7    3    4 ar
     8    3   30 1
     9    4    5 ar
    10    4   31 1
    11    5    6 ar
    12    5    8 1
    13    6    7 ar
    14    6   32 1
    15    7   33 1
    16    8    9 1
    17    8   10 1
    18    8   19 1
    19   10   11 2
    20   10   12 1
    21   12   17 ar
    22   12   13 ar
    23   13   14 ar
    24   13   34 1
    25   14   15 ar
    26   14   35 1
    27   15   16 ar
    28   15   18 1
    29   16   17 ar
    30   16   36 1
    31   17   37 1
    32   18   38 1
    33   18   39 1
    34   18   40 1
    35   19   20 1
    36   20   25 2
    37   20   21 1
    38   21   22 1
    39   21   23 1
    40   23   24 2
    41   23   26 1
    42   24   25 1
    43   26   41 1
    44   26   42 1
@<TRIPOS>MOLECULE
ZINC03524412
   40    42     0     0     0
SMALL
USER_CHARGES

@<TRIPOS>ATOM
      1 C1         11.3805    1.9541   -8.3379 C.3       1 <0>        -0.3767
      2 S1          9.9631    1.7592   -7.2293 S.3       1 <0>         0.2824
      3 C2          9.5973    0.0565   -7.4967 C.ar      1 <0>        -0.1460
      4 C3         10.3642   -0.6927   -8.3822 C.ar      1 <0>        -0.1709
      5 C4         10.0762   -2.0254   -8.5889 C.ar      1 <0>        -0.0754
      6 C5          9.0229   -2.6289   -7.9186 C.ar      1 <0>        -0.1611
      7 C6          8.2548   -1.9056   -7.0336 C.ar      1 <0>        -0.0543
      8 C7          8.5295   -0.5521   -6.8162 C.ar      1 <0>        -0.1176
      9 C8          7.7089    0.2289   -5.8756 C.2       1 <0>         0.3491
     10 O1          7.9543    1.4039   -5.6859 O.2       1 <0>        -0.3501
     11 O2          6.6855   -0.3594   -5.2251 O.3       1 <0>        -0.2424
     12 C9          5.9195    0.4713   -4.3132 C.3       1 <0>        -0.0338
     13 C10         4.8256   -0.3515   -3.6827 C.2       1 <0>         0.2628
     14 O3          4.7036   -1.5228   -3.9733 O.2       1 <0>        -0.2595
     15 C11         3.9073    0.2648   -2.7164 C.ar      1 <0>        -0.1543
     16 C12         4.0463    1.6169   -2.3799 C.ar      1 <0>        -0.0892
     17 C13         3.1845    2.1953   -1.4746 C.ar      1 <0>        -0.1325
     18 C14         2.1763    1.4397   -0.8926 C.ar      1 <0>         0.0770
     19 C15         2.0315    0.0893   -1.2228 C.ar      1 <0>        -0.0053
     20 C16         2.8900   -0.4983   -2.1293 C.ar      1 <0>        -0.0798
     21 N1          1.0065   -0.6568   -0.6225 N.am      1 <0>        -0.3125
     22 C17         0.0021   -0.0041    0.0020 C.2       1 <0>         0.2758
     23 O4         -0.8798   -0.6282    0.5534 O.2       1 <0>        -0.3332
     24 C18        -0.0184    1.5033    0.0103 C.3       1 <0>        -0.0289
     25 O5          1.3214    2.0024    0.0002 O.3       1 <0>        -0.2010
     26 H1         11.7398    2.9821   -8.2911 H         1 <0>         0.1185
     27 H2         12.1774    1.2764   -8.0315 H         1 <0>         0.0967
     28 H3         11.0780    1.7211   -9.3589 H         1 <0>         0.0967
     29 H4         11.1864   -0.2306   -8.9083 H         1 <0>         0.1423
     30 H5         10.6753   -2.6031   -9.2771 H         1 <0>         0.1334
     31 H6          8.8065   -3.6733   -8.0883 H         1 <0>         0.1374
     32 H7          7.4388   -2.3824   -6.5109 H         1 <0>         0.1569
     33 H8          5.5145    1.2340   -4.8175 H         1 <0>         0.1040
     34 H9          6.5772    0.8586   -3.5350 H         1 <0>         0.1132
     35 H10         4.8302    2.2072   -2.8312 H         1 <0>         0.1445
     36 H11         3.2934    3.2385   -1.2172 H         1 <0>         0.1557
     37 H12         2.7783   -1.5418   -2.3846 H         1 <0>         0.1620
     38 H13         1.0188   -1.6261   -0.6550 H         1 <0>         0.2544
     39 H14        -0.5465    1.8638   -0.8724 H         1 <0>         0.1065
     40 H15        -0.5295    1.8543    0.9068 H         1 <0>         0.1552
@<TRIPOS>BOND
     1    1    2 1
     2    1   26 1
     3    1   27 1
     4    1   28 1
     5    2    3 1
     6    3    8 ar
     7    3    4 ar
     8    4    5 ar
     9    4   29 1
    10    5    6 ar
    11    5   30 1
    12    6    7 ar
    13    6   31 1
    14    7    8 ar
    15    7   32 1
    16    8    9 1
    17    9   10 2
    18    9   11 1
    19   11   12 1
    20   12   13 1
    21   12   33 1
    22   12   34 1
    23   13   14 2
    24   13   15 1
    25   15   20 ar
    26   15   16 ar
    27   16   17 ar
    28   16   35 1
    29   17   18 ar
    30   17   36 1
    31   18   25 1
    32   18   19 ar
    33   19   20 ar
    34   19   21 1
    35   20   37 1
    36   21   22 am
    37   21   38 1
    38   22   23 2
    39   22   24 1
    40   24   25 1
    41   24   39 1
    42   24   40 1
@<TRIPOS>MOLECULE
ZINC03525107
   43    45     0     0     0
SMALL
USER_CHARGES

@<TRIPOS>ATOM
      1 C1         -0.0729   -7.7647   -1.4809 C.3       1 <0>        -0.2348
      2 C2         -0.3948   -7.3887   -0.0332 C.3       1 <0>        -0.0155
      3 N1         -1.3617   -6.2882   -0.0179 N.pl3     1 <0>        -0.1771
      4 C3         -2.7174   -6.4068   -0.0052 C.2       1 <0>         0.0247
      5 N2         -3.2698   -5.2294    0.0059 N.2       1 <0>        -0.1657
      6 C4         -2.3041   -4.2736    0.0011 C.ar      1 <0>        -0.0577
      7 C5         -1.0659   -4.9422   -0.0143 C.ar      1 <0>        -0.0300
      8 C6          0.1197   -4.2162   -0.0224 C.ar      1 <0>        -0.1321
      9 C7          0.0880   -2.8519   -0.0199 C.ar      1 <0>        -0.0999
     10 C8         -1.1358   -2.1700    0.0013 C.ar      1 <0>        -0.1546
     11 C9         -2.3327   -2.8802    0.0089 C.ar      1 <0>         0.0051
     12 C10        -1.1558   -0.6938    0.0094 C.2       1 <0>         0.3688
     13 O1         -2.2172   -0.1000    0.0227 O.2       1 <0>        -0.3208
     14 N3          0.0021   -0.0041    0.0020 N.am      1 <0>        -0.3325
     15 N4         -0.0169    1.3968    0.0097 N.2       1 <0>         0.0325
     16 C11         1.0987    2.0613    0.0026 C.2       1 <0>        -0.1227
     17 C12         1.0787    3.5341    0.0107 C.ar      1 <0>        -0.0831
     18 C13         2.2776    4.2520    0.0031 C.ar      1 <0>        -0.0854
     19 C14         2.2545    5.6294    0.0108 C.ar      1 <0>        -0.1719
     20 C15         1.0419    6.3088    0.0256 C.ar      1 <0>         0.0964
     21 C16        -0.1537    5.6053    0.0333 C.ar      1 <0>        -0.1914
     22 C17        -0.1435    4.2215    0.0203 C.ar      1 <0>         0.1257
     23 O2         -1.3132    3.5316    0.0221 O.3       1 <0>        -0.2639
     24 O3          1.0276    7.6671    0.0322 O.3       1 <0>        -0.2919
     25 C18        -3.4693   -7.7128   -0.0042 C.3       1 <0>        -0.1402
     26 H1         -0.9865   -8.0767   -1.9870 H         1 <0>         0.0876
     27 H2          0.3506   -6.9018   -1.9948 H         1 <0>         0.0913
     28 H3          0.6465   -8.5835   -1.4923 H         1 <0>         0.0873
     29 H4          0.5187   -7.0767    0.4729 H         1 <0>         0.1024
     30 H5         -0.8184   -8.2516    0.4807 H         1 <0>         0.1009
     31 H6          1.0679   -4.7331   -0.0342 H         1 <0>         0.1272
     32 H7          1.0127   -2.2940   -0.0301 H         1 <0>         0.1234
     33 H8         -3.2766   -2.3555    0.0203 H         1 <0>         0.1716
     34 H9          0.8486   -0.4776   -0.0086 H         1 <0>         0.2062
     35 H10         2.0412    1.5341   -0.0092 H         1 <0>         0.1135
     36 H11         3.2215    3.7274   -0.0084 H         1 <0>         0.1346
     37 H12         3.1817    6.1833    0.0049 H         1 <0>         0.1426
     38 H13        -1.0931    6.1380    0.0448 H         1 <0>         0.1544
     39 H14        -1.6478    3.3269    0.9060 H         1 <0>         0.2441
     40 H15         1.0150    8.0646   -0.8492 H         1 <0>         0.2320
     41 H16        -3.6611   -8.0225   -1.0315 H         1 <0>         0.0998
     42 H17        -2.8742   -8.4743    0.4998 H         1 <0>         0.0826
     43 H18        -4.4166   -7.5862    0.5200 H         1 <0>         0.1165
@<TRIPOS>BOND
     1    1    2 1
     2    1   26 1
     3    1   27 1
     4    1   28 1
     5    2    3 1
     6    2   29 1
     7    2   30 1
     8    3    7 1
     9    3    4 1
    10    4    5 2
    11    4   25 1
    12    5    6 1
    13    6   11 ar
    14    6    7 ar
    15    7    8 ar
    16    8    9 ar
    17    8   31 1
    18    9   10 ar
    19    9   32 1
    20   10   11 ar
    21   10   12 1
    22   11   33 1
    23   12   13 2
    24   12   14 am
    25   14   15 1
    26   14   34 1
    27   15   16 2
    28   16   17 1
    29   16   35 1
    30   17   22 ar
    31   17   18 ar
    32   18   19 ar
    33   18   36 1
    34   19   20 ar
    35   19   37 1
    36   20   21 ar
    37   20   24 1
    38   21   22 ar
    39   21   38 1
    40   22   23 1
    41   23   39 1
    42   24   40 1
    43   25   41 1
    44   25   42 1
    45   25   43 1
@<TRIPOS>MOLECULE
ZINC03525372
   44    46     0     0     0
SMALL
USER_CHARGES

@<TRIPOS>ATOM
      1 C1          2.4073   -7.0399   -0.0511 C.ar      1 <0>        -0.0613
      2 C2          2.4334   -8.4171   -0.0627 C.ar      1 <0>        -0.1898
      3 C3          3.6498   -9.0913   -0.0784 C.ar      1 <0>         0.0348
      4 C4          4.8440   -8.3782   -0.0870 C.ar      1 <0>        -0.1578
      5 C5          4.8258   -7.0009   -0.0804 C.ar      1 <0>        -0.0875
      6 C6          3.6053   -6.3199   -0.0650 C.ar      1 <0>        -0.0730
      7 C7          3.5816   -4.8463   -0.0574 C.2       1 <0>        -0.1127
      8 N1          2.4471   -4.2154   -0.0431 N.2       1 <0>         0.0056
      9 N2          2.4246   -2.8146   -0.0358 N.am      1 <0>        -0.3307
     10 C8          1.2468   -2.1596   -0.0210 C.2       1 <0>         0.3717
     11 O1          0.2033   -2.7847   -0.0140 O.2       1 <0>        -0.3331
     12 C9          1.2231   -0.6850   -0.0133 C.ar      1 <0>        -0.1922
     13 C10         0.0021   -0.0041    0.0020 C.ar      1 <0>        -0.0129
     14 C11        -0.0166    1.3719    0.0096 C.ar      1 <0>        -0.2228
     15 C12         1.1786    2.0858    0.0020 C.ar      1 <0>         0.1457
     16 C13         2.3961    1.4108   -0.0133 C.ar      1 <0>        -0.2209
     17 C14         2.4216    0.0349   -0.0210 C.ar      1 <0>        -0.0560
     18 N3          1.1562    3.4763    0.0093 N.pl3     1 <0>        -0.4094
     19 N4          3.6723  -10.4858   -0.0852 N.pl3     1 <0>        -0.1968
     20 C15         4.4294  -10.9950   -1.2379 C.3       1 <0>        -0.1076
     21 C16         4.4794  -12.5238   -1.1738 C.3       1 <0>        -0.0151
     22 O2          3.1455  -13.0381   -1.1322 O.3       1 <0>        -0.2788
     23 C17         2.3797  -12.5632   -0.0217 C.3       1 <0>        -0.0147
     24 C18         2.3085  -11.0347   -0.0742 C.3       1 <0>        -0.1174
     25 H1          1.4625   -6.5171   -0.0348 H         1 <0>         0.1611
     26 H2          1.5081   -8.9740   -0.0561 H         1 <0>         0.1410
     27 H3          5.7867   -8.9051   -0.0985 H         1 <0>         0.1372
     28 H4          5.7535   -6.4479   -0.0867 H         1 <0>         0.1297
     29 H5          4.5081   -4.2913   -0.0636 H         1 <0>         0.1123
     30 H6          3.2567   -2.3161   -0.0414 H         1 <0>         0.2069
     31 H7         -0.9254   -0.5573    0.0083 H         1 <0>         0.1580
     32 H8         -0.9595    1.8985    0.0169 H         1 <0>         0.1361
     33 H9          3.3215    1.9675   -0.0196 H         1 <0>         0.1317
     34 H10         3.3664   -0.4882   -0.0325 H         1 <0>         0.1210
     35 H11         0.3086    3.9476    0.0196 H         1 <0>         0.2235
     36 H12         1.9884    3.9747    0.0040 H         1 <0>         0.2219
     37 H13         3.9392  -10.6853   -2.1609 H         1 <0>         0.0796
     38 H14         5.4435  -10.5963   -1.2121 H         1 <0>         0.1031
     39 H15         5.0168  -12.8331   -0.2773 H         1 <0>         0.0794
     40 H16         4.9908  -12.9092   -2.0558 H         1 <0>         0.1108
     41 H17         2.8561  -12.8736    0.9083 H         1 <0>         0.0802
     42 H18         1.3722  -12.9764   -0.0702 H         1 <0>         0.1115
     43 H19         1.7744  -10.6650    0.8011 H         1 <0>         0.1084
     44 H20         1.7841  -10.7250   -0.9782 H         1 <0>         0.0792
@<TRIPOS>BOND
     1    1    6 ar
     2    1    2 ar
     3    1   25 1
     4    2    3 ar
     5    2   26 1
     6    3    4 ar
     7    3   19 1
     8    4    5 ar
     9    4   27 1
    10    5    6 ar
    11    5   28 1
    12    6    7 1
    13    7    8 2
    14    7   29 1
    15    8    9 1
    16    9   10 am
    17    9   30 1
    18   10   11 2
    19   10   12 1
    20   12   17 ar
    21   12   13 ar
    22   13   14 ar
    23   13   31 1
    24   14   15 ar
    25   14   32 1
    26   15   16 ar
    27   15   18 1
    28   16   17 ar
    29   16   33 1
    30   17   34 1
    31   18   35 1
    32   18   36 1
    33   19   24 1
    34   19   20 1
    35   20   21 1
    36   20   37 1
    37   20   38 1
    38   21   22 1
    39   21   39 1
    40   21   40 1
    41   22   23 1
    42   23   24 1
    43   23   41 1
    44   23   42 1
    45   24   43 1
    46   24   44 1
@<TRIPOS>MOLECULE
ZINC03525556
   41    43     0     0     0
SMALL
USER_CHARGES

@<TRIPOS>ATOM
      1 C1          0.0021   -0.0041    0.0020 C.ar      1 <0>        -0.0126
      2 C2         -0.0166    1.3719    0.0096 C.ar      1 <0>        -0.2226
      3 C3          1.1785    2.0858    0.0020 C.ar      1 <0>         0.1458
      4 C4          2.3959    1.4108   -0.0133 C.ar      1 <0>        -0.2207
      5 C5          2.4215    0.0349   -0.0210 C.ar      1 <0>        -0.0562
      6 C6          1.2231   -0.6850   -0.0133 C.ar      1 <0>        -0.1920
      7 C7          1.2468   -2.1596   -0.0210 C.2       1 <0>         0.3711
      8 O1          0.2030   -2.7849   -0.0139 O.2       1 <0>        -0.3290
      9 N1          2.4246   -2.8146   -0.0358 N.am      1 <0>        -0.3287
     10 N2          2.4471   -4.2154   -0.0431 N.2       1 <0>         0.0089
     11 C8          3.5852   -4.8483   -0.0574 C.2       1 <0>        -0.0736
     12 C9          3.6087   -6.3117   -0.0650 C.2       1 <0>        -0.2567
     13 C10         4.6983   -7.1661   -0.0799 C.2       1 <0>        -0.1283
     14 C11         4.4683   -8.5207   -0.0845 C.2       1 <0>        -0.2182
     15 C12         3.1786   -8.9762   -0.0742 C.2       1 <0>        -0.1770
     16 S1          2.2402   -7.4580   -0.0495 S.3       1 <0>         0.3906
     17 N3          2.7164  -10.2879   -0.0763 N.pl3     1 <0>        -0.1435
     18 C13         3.2471  -11.0316   -1.2281 C.3       1 <0>        -0.1114
     19 C14         2.7629  -12.4824   -1.1589 C.3       1 <0>        -0.0151
     20 O2          1.3336  -12.5010   -1.1144 O.3       1 <0>        -0.2776
     21 C15         0.7828  -11.7865   -0.0047 C.3       1 <0>        -0.0125
     22 C16         1.2469  -10.3287   -0.0622 C.3       1 <0>        -0.1233
     23 N4          1.1562    3.4765    0.0093 N.pl3     1 <0>        -0.4094
     24 H1         -0.9254   -0.5573    0.0083 H         1 <0>         0.1583
     25 H2         -0.9595    1.8986    0.0169 H         1 <0>         0.1363
     26 H3          3.3214    1.9676   -0.0192 H         1 <0>         0.1318
     27 H4          3.3663   -0.4881   -0.0325 H         1 <0>         0.1207
     28 H5          3.2567   -2.3161   -0.0414 H         1 <0>         0.2072
     29 H6          4.5117   -4.2933   -0.0637 H         1 <0>         0.1236
     30 H7          5.7056   -6.7767   -0.0875 H         1 <0>         0.1407
     31 H8          5.2944   -9.2163   -0.0965 H         1 <0>         0.1454
     32 H9          2.8932  -10.5735   -2.1516 H         1 <0>         0.0833
     33 H10         4.3367  -11.0101   -1.2046 H         1 <0>         0.1071
     34 H11         3.1612  -12.9566   -0.2619 H         1 <0>         0.0808
     35 H12         3.1067  -13.0239   -2.0401 H         1 <0>         0.1135
     36 H13         1.1235  -12.2405    0.9258 H         1 <0>         0.0815
     37 H14        -0.3056  -11.8240   -0.0508 H         1 <0>         0.1155
     38 H15         0.8764   -9.7939    0.8124 H         1 <0>         0.1145
     39 H16         0.8610   -9.8593   -0.9671 H         1 <0>         0.0862
     40 H17         0.3085    3.9479    0.0196 H         1 <0>         0.2236
     41 H18         1.9883    3.9750    0.0040 H         1 <0>         0.2220
@<TRIPOS>BOND
     1    1    6 ar
     2    1    2 ar
     3    1   24 1
     4    2    3 ar
     5    2   25 1
     6    3    4 ar
     7    3   23 1
     8    4    5 ar
     9    4   26 1
    10    5    6 ar
    11    5   27 1
    12    6    7 1
    13    7    8 2
    14    7    9 am
    15    9   10 1
    16    9   28 1
    17   10   11 2
    18   11   12 1
    19   11   29 1
    20   12   16 1
    21   12   13 2
    22   13   14 1
    23   13   30 1
    24   14   15 2
    25   14   31 1
    26   15   16 1
    27   15   17 1
    28   17   22 1
    29   17   18 1
    30   18   19 1
    31   18   32 1
    32   18   33 1
    33   19   20 1
    34   19   34 1
    35   19   35 1
    36   20   21 1
    37   21   22 1
    38   21   36 1
    39   21   37 1
    40   22   38 1
    41   22   39 1
    42   23   40 1
    43   23   41 1
@<TRIPOS>MOLECULE
ZINC03526225
   42    43     0     0     0
SMALL
USER_CHARGES

@<TRIPOS>ATOM
      1 C1         -0.1547    0.0001   -0.6035 C.3       1 <0>        -0.2415
      2 C2         -0.1854    1.5068   -0.6066 C.2       1 <0>         0.3004
      3 O1          0.6940    2.1301   -1.1625 O.2       1 <0>        -0.3440
      4 N1         -1.1931    2.1615    0.0037 N.am      1 <0>        -0.3262
      5 C3         -1.1611    3.5516    0.1046 C.ar      1 <0>         0.0998
      6 C4          0.0594    4.2199    0.1010 C.ar      1 <0>        -0.1570
      7 C5          0.0946    5.5926    0.1956 C.ar      1 <0>        -0.0510
      8 C6         -1.0974    6.3148    0.3062 C.ar      1 <0>        -0.1426
      9 C7         -2.3216    5.6396    0.3148 C.ar      1 <0>        -0.0423
     10 C8         -2.3495    4.2671    0.2145 C.ar      1 <0>        -0.1904
     11 C9         -1.0636    7.7851    0.4130 C.2       1 <0>         0.3572
     12 O2         -2.1004    8.4113    0.5086 O.2       1 <0>        -0.3721
     13 O3          0.1172    8.4343    0.4045 O.3       1 <0>        -0.2336
     14 C10         0.0746    9.8816    0.5132 C.3       1 <0>        -0.0266
     15 C11         1.4785   10.4288    0.4866 C.2       1 <0>         0.2872
     16 O4          2.4217    9.6738    0.3859 O.2       1 <0>        -0.2568
     17 N2          1.6855   11.7577    0.5747 N.am      1 <0>        -0.3533
     18 C12         2.9410   12.2472    0.5508 C.2       1 <0>         0.3774
     19 O5          3.8815   11.5002    0.3569 O.2       1 <0>        -0.3089
     20 C13         3.1733   13.6790    0.7585 C.2       1 <0>        -0.1628
     21 C14         2.2040   14.6524    0.8901 C.2       1 <0>        -0.1609
     22 C15         2.8692   15.8686    1.0713 C.2       1 <0>        -0.2150
     23 C16         4.2010   15.6209    1.0475 C.2       1 <0>        -0.1071
     24 N3          4.3984   14.2984    0.8639 N.pl3     1 <0>        -0.0659
     25 C17         5.7010   13.6324    0.7869 C.3       1 <0>        -0.0816
     26 H1          0.7253   -0.3464   -1.1455 H         1 <0>         0.1218
     27 H2         -0.1136   -0.3603    0.4243 H         1 <0>         0.0982
     28 H3         -1.0534   -0.3826   -1.0872 H         1 <0>         0.0968
     29 H4         -1.9406    1.6655    0.3726 H         1 <0>         0.2346
     30 H5          0.9801    3.6610    0.0200 H         1 <0>         0.1763
     31 H6          1.0421    6.1110    0.1886 H         1 <0>         0.1621
     32 H7         -3.2444    6.1943    0.3997 H         1 <0>         0.1549
     33 H8         -3.2948    3.7449    0.2208 H         1 <0>         0.1350
     34 H9         -0.4914   10.2922   -0.3229 H         1 <0>         0.1107
     35 H10        -0.4068   10.1615    1.4502 H         1 <0>         0.1094
     36 H11         0.9309   12.3618    0.6552 H         1 <0>         0.2336
     37 H12         1.1349   14.5031    0.8587 H         1 <0>         0.1427
     38 H13         2.4041   16.8340    1.2063 H         1 <0>         0.1523
     39 H14         4.9789   16.3615    1.1612 H         1 <0>         0.1703
     40 H15         6.0779   13.6885   -0.2344 H         1 <0>         0.0953
     41 H16         6.4017   14.1258    1.4604 H         1 <0>         0.0880
     42 H17         5.5925   12.5874    1.0772 H         1 <0>         0.1358
@<TRIPOS>BOND
     1    1    2 1
     2    1   26 1
     3    1   27 1
     4    1   28 1
     5    2    3 2
     6    2    4 am
     7    4    5 1
     8    4   29 1
     9    5   10 ar
    10    5    6 ar
    11    6    7 ar
    12    6   30 1
    13    7    8 ar
    14    7   31 1
    15    8    9 ar
    16    8   11 1
    17    9   10 ar
    18    9   32 1
    19   10   33 1
    20   11   12 2
    21   11   13 1
    22   13   14 1
    23   14   15 1
    24   14   34 1
    25   14   35 1
    26   15   16 2
    27   15   17 am
    28   17   18 am
    29   17   36 1
    30   18   19 2
    31   18   20 1
    32   20   24 1
    33   20   21 2
    34   21   22 1
    35   21   37 1
    36   22   23 2
    37   22   38 1
    38   23   24 1
    39   23   39 1
    40   24   25 1
    41   25   40 1
    42   25   41 1
    43   25   42 1
@<TRIPOS>MOLECULE
ZINC03533002
   39    42     0     0     0
SMALL
USER_CHARGES

@<TRIPOS>ATOM
      1 C1        -12.2529    0.2894    0.3590 C.3       1 <0>        -0.0845
      2 N1        -12.2875    1.7540    0.3474 N.pl3     1 <0>        -0.0659
      3 C2        -13.3985    2.5151    0.4389 C.2       1 <0>        -0.1060
      4 C3        -13.0431    3.8215    0.3880 C.2       1 <0>        -0.2148
      5 C4        -11.6518    3.8824    0.2656 C.2       1 <0>        -0.1588
      6 C5        -11.1919    2.5815    0.2451 C.2       1 <0>        -0.1647
      7 C6         -9.7939    2.1582    0.1294 C.2       1 <0>         0.3778
      8 O1         -9.5222    0.9763    0.0320 O.2       1 <0>        -0.3103
      9 N2         -8.8089    3.0781    0.1310 N.am      1 <0>        -0.3476
     10 C7         -7.5197    2.6850    0.1318 C.2       1 <0>         0.3119
     11 O2         -7.2461    1.5039    0.1310 O.2       1 <0>        -0.2742
     12 C8         -6.4183    3.7136    0.1335 C.3       1 <0>        -0.3131
     13 S1         -4.8091    2.8764    0.1342 S.3       1 <0>         0.3204
     14 C9         -3.6419    4.1964    0.1362 C.2       1 <0>        -0.1837
     15 N3         -3.9260    5.4761    0.1374 N.2       1 <0>        -0.0961
     16 N4         -2.7197    6.1881    0.1393 N.2       1 <0>        -0.1272
     17 C10        -1.7347    5.3187    0.1391 C.2       1 <0>         0.0846
     18 N5         -2.2793    4.0655    0.1372 N.pl3     1 <0>        -0.1330
     19 C11        -1.2372    3.1353    0.1375 C.ar      1 <0>        -0.0128
     20 C12        -1.2169    1.7480    0.1304 C.ar      1 <0>        -0.0876
     21 C13        -0.0102    1.0769    0.1365 C.ar      1 <0>        -0.1374
     22 C14         1.1808    1.7827    0.1391 C.ar      1 <0>        -0.0986
     23 C15         1.1713    3.1631    0.1404 C.ar      1 <0>        -0.1425
     24 C16        -0.0374    3.8469    0.1396 C.ar      1 <0>         0.0462
     25 N6         -0.3554    5.2014    0.1405 N.pl3     1 <0>        -0.2347
     26 H1          0.2788    5.9354    0.1419 H         1 <0>         0.2746
     27 H2        -12.2381   -0.0655    1.3895 H         1 <0>         0.0933
     28 H3        -13.1371   -0.0989   -0.1464 H         1 <0>         0.0891
     29 H4        -11.3577   -0.0569   -0.1575 H         1 <0>         0.1389
     30 H5        -14.4080    2.1428    0.5324 H         1 <0>         0.1706
     31 H6        -13.7151    4.6657    0.4336 H         1 <0>         0.1530
     32 H7        -11.0510    4.7775    0.1998 H         1 <0>         0.1437
     33 H8         -9.0278    4.0231    0.1315 H         1 <0>         0.2373
     34 H9         -6.5043    4.3365    1.0239 H         1 <0>         0.1378
     35 H10        -6.5028    4.3379   -0.7561 H         1 <0>         0.1381
     36 H11        -2.1438    1.1937    0.1238 H         1 <0>         0.1511
     37 H12         0.0046   -0.0030    0.1347 H         1 <0>         0.1437
     38 H13         2.1210    1.2513    0.1397 H         1 <0>         0.1411
     39 H14         2.1024    3.7104    0.1424 H         1 <0>         0.1399
@<TRIPOS>BOND
     1    1    2 1
     2    1   27 1
     3    1   28 1
     4    1   29 1
     5    2    6 1
     6    2    3 1
     7    3    4 2
     8    3   30 1
     9    4    5 1
    10    4   31 1
    11    5    6 2
    12    5   32 1
    13    6    7 1
    14    7    8 2
    15    7    9 am
    16    9   10 am
    17    9   33 1
    18   10   11 2
    19   10   12 1
    20   12   13 1
    21   12   34 1
    22   12   35 1
    23   13   14 1
    24   14   18 1
    25   14   15 2
    26   15   16 1
    27   16   17 2
    28   17   25 1
    29   17   18 1
    30   18   19 1
    31   19   24 ar
    32   19   20 ar
    33   20   21 ar
    34   20   36 1
    35   21   22 ar
    36   21   37 1
    37   22   23 ar
    38   22   38 1
    39   23   24 ar
    40   23   39 1
    41   24   25 1
    42   25   26 1
@<TRIPOS>MOLECULE
ZINC03538373
   42    44     0     0     0
SMALL
USER_CHARGES

@<TRIPOS>ATOM
      1 C1         -0.8319   14.1489   -1.8359 C.3       1 <0>        -0.1666
      2 C2         -1.9977   13.5716   -1.0751 C.ar      1 <0>        -0.0188
      3 C3         -2.0012   12.2257   -0.7468 C.ar      1 <0>         0.0514
      4 C4         -3.0962   11.7034   -0.0376 C.ar      1 <0>        -0.0384
      5 C5         -4.1399   12.5751    0.2992 C.ar      1 <0>        -0.1199
      6 C6         -4.0477   13.9018   -0.0648 C.ar      1 <0>        -0.0271
      7 N1         -3.0019   14.3538   -0.7307 N.ar      1 <0>        -0.1486
      8 C7         -5.3433   12.0713    1.0535 C.3       1 <0>         0.0420
      9 O1         -6.2551   13.1499    1.2709 O.3       1 <0>        -0.3517
     10 C8         -3.1480   10.2786    0.3356 C.2       1 <0>        -0.1223
     11 N2         -2.1731    9.4864    0.0093 N.2       1 <0>         0.0437
     12 N3         -2.2223    8.1319    0.3641 N.am      1 <0>        -0.3372
     13 C9         -1.2100    7.3093    0.0252 C.2       1 <0>         0.3167
     14 O2         -0.2562    7.7416   -0.5870 O.2       1 <0>        -0.2724
     15 C10        -1.2629    5.8524    0.4069 C.3       1 <0>        -0.0234
     16 H1         -1.4017    5.7589    1.4839 H         1 <0>         0.1172
     17 C11        -2.4244    5.1674   -0.3260 C.3       1 <0>        -0.0431
     18 O3         -2.4371    3.7853    0.0479 O.3       1 <0>        -0.2029
     19 C12        -1.2410    3.1361    0.0299 C.ar      1 <0>         0.0099
     20 C13        -1.2193    1.7493    0.0173 C.ar      1 <0>        -0.1200
     21 C14        -0.0126    1.0758    0.0080 C.ar      1 <0>        -0.1283
     22 C15         1.1759    1.7821    0.0004 C.ar      1 <0>        -0.1262
     23 C16         1.1613    3.1640    0.0067 C.ar      1 <0>        -0.1156
     24 C17        -0.0464    3.8461    0.0203 C.ar      1 <0>         0.0191
     25 O4         -0.0451    5.2072    0.0190 O.3       1 <0>        -0.1689
     26 O5         -0.9643   11.4246   -1.1045 O.3       1 <0>        -0.2589
     27 H2         -1.0231   14.0729   -2.9063 H         1 <0>         0.0893
     28 H3         -0.7030   15.1963   -1.5633 H         1 <0>         0.1017
     29 H4          0.0736   13.5949   -1.5883 H         1 <0>         0.1020
     30 H5         -4.8464   14.5808    0.1949 H         1 <0>         0.1866
     31 H6         -5.8354   11.2909    0.4730 H         1 <0>         0.0681
     32 H7         -5.0261   11.6645    2.0137 H         1 <0>         0.0710
     33 H8         -7.0550   12.8977    1.7522 H         1 <0>         0.2184
     34 H9         -3.9973    9.8937    0.8807 H         1 <0>         0.1162
     35 H10        -2.9851    7.7862    0.8536 H         1 <0>         0.2043
     36 H11        -2.2826    5.2555   -1.4031 H         1 <0>         0.1085
     37 H12        -3.3669    5.6343   -0.0399 H         1 <0>         0.1144
     38 H13        -2.1463    1.1952    0.0194 H         1 <0>         0.1449
     39 H14         0.0021   -0.0041    0.0020 H         1 <0>         0.1365
     40 H15         2.1174    1.2531   -0.0101 H         1 <0>         0.1377
     41 H16         2.0911    3.7134    0.0014 H         1 <0>         0.1510
     42 H17        -1.0698   11.0080   -1.9708 H         1 <0>         0.2397
@<TRIPOS>BOND
     1    1    2 1
     2    1   27 1
     3    1   28 1
     4    1   29 1
     5    2    7 ar
     6    2    3 ar
     7    3    4 ar
     8    3   26 1
     9    4    5 ar
    10    4   10 1
    11    5    6 ar
    12    5    8 1
    13    6    7 ar
    14    6   30 1
    15    8    9 1
    16    8   31 1
    17    8   32 1
    18    9   33 1
    19   10   11 2
    20   10   34 1
    21   11   12 1
    22   12   13 am
    23   12   35 1
    24   13   14 2
    25   13   15 1
    26   15   16 1
    27   15   25 1
    28   15   17 1
    29   17   18 1
    30   17   36 1
    31   17   37 1
    32   18   19 1
    33   19   24 ar
    34   19   20 ar
    35   20   21 ar
    36   20   38 1
    37   21   22 ar
    38   21   39 1
    39   22   23 ar
    40   22   40 1
    41   23   24 ar
    42   23   41 1
    43   24   25 1
    44   26   42 1
@<TRIPOS>MOLECULE
ZINC03538375
   42    44     0     0     0
SMALL
USER_CHARGES

@<TRIPOS>ATOM
      1 C1          1.0032    3.5367    0.0110 C.3       1 <0>        -0.1601
      2 C2          1.0910    2.0323    0.0026 C.ar      1 <0>        -0.0192
      3 C3          2.3334    1.4196   -0.0126 C.ar      1 <0>         0.0513
      4 C4          2.3974    0.0158   -0.0207 C.ar      1 <0>        -0.0383
      5 C5          1.1927   -0.6991   -0.0131 C.ar      1 <0>        -0.1199
      6 C6          0.0021   -0.0041    0.0020 C.ar      1 <0>        -0.0270
      7 N1         -0.0158    1.3154    0.0093 N.ar      1 <0>        -0.1487
      8 C7          1.1981   -2.2060   -0.0217 C.3       1 <0>         0.0420
      9 O1         -0.1474   -2.6872   -0.0119 O.3       1 <0>        -0.3517
     10 C8          3.6944   -0.6840   -0.0364 C.2       1 <0>        -0.1223
     11 N2          4.7993   -0.0030   -0.0433 N.2       1 <0>         0.0437
     12 N3          6.0322   -0.6682   -0.0582 N.am      1 <0>        -0.3371
     13 C9          7.1794    0.0390   -0.0654 C.2       1 <0>         0.3165
     14 O2          7.1446    1.2515   -0.0589 O.2       1 <0>        -0.2724
     15 C10         8.5056   -0.6766   -0.0814 C.3       1 <0>        -0.0236
     16 H1          8.5377   -1.3724   -0.9198 H         1 <0>         0.1148
     17 C11         8.6966   -1.4421    1.2350 C.3       1 <0>        -0.0426
     18 O3          9.9688   -2.0976    1.1914 O.3       1 <0>        -0.2031
     19 C12        11.0253   -1.3543    0.7625 C.ar      1 <0>         0.0109
     20 C13        12.3156   -1.7894    1.0265 C.ar      1 <0>        -0.1201
     21 C14        13.3984   -1.0488    0.5920 C.ar      1 <0>        -0.1281
     22 C15        13.1989    0.1274   -0.1067 C.ar      1 <0>        -0.1266
     23 C16        11.9159    0.5671   -0.3720 C.ar      1 <0>        -0.1158
     24 C17        10.8246   -0.1708    0.0623 C.ar      1 <0>         0.0189
     25 O4          9.5670    0.2764   -0.2040 O.3       1 <0>        -0.1696
     26 O5          3.4702    2.1631   -0.0195 O.3       1 <0>        -0.2584
     27 H2          0.9916    3.8942    1.0406 H         1 <0>         0.1016
     28 H3          1.8656    3.9539   -0.5088 H         1 <0>         0.0879
     29 H4          0.0888    3.8501   -0.4928 H         1 <0>         0.0972
     30 H5         -0.9308   -0.5482    0.0084 H         1 <0>         0.1867
     31 H6          1.7049   -2.5624   -0.9185 H         1 <0>         0.0685
     32 H7          1.7216   -2.5726    0.8613 H         1 <0>         0.0706
     33 H8         -0.2203   -3.6515   -0.0167 H         1 <0>         0.2184
     34 H9          3.7254   -1.7636   -0.0421 H         1 <0>         0.1162
     35 H10         6.0600   -1.6378   -0.0633 H         1 <0>         0.2044
     36 H11         8.6703   -0.7451    2.0727 H         1 <0>         0.1112
     37 H12         7.9050   -2.1830    1.3476 H         1 <0>         0.1152
     38 H13        12.4742   -2.7080    1.5718 H         1 <0>         0.1450
     39 H14        14.4023   -1.3896    0.7984 H         1 <0>         0.1365
     40 H15        14.0471    0.7035   -0.4458 H         1 <0>         0.1375
     41 H16        11.7627    1.4861   -0.9183 H         1 <0>         0.1503
     42 H17         3.7909    2.3831   -0.9048 H         1 <0>         0.2394
@<TRIPOS>BOND
     1    1    2 1
     2    1   27 1
     3    1   28 1
     4    1   29 1
     5    2    7 ar
     6    2    3 ar
     7    3    4 ar
     8    3   26 1
     9    4    5 ar
    10    4   10 1
    11    5    6 ar
    12    5    8 1
    13    6    7 ar
    14    6   30 1
    15    8    9 1
    16    8   31 1
    17    8   32 1
    18    9   33 1
    19   10   11 2
    20   10   34 1
    21   11   12 1
    22   12   13 am
    23   12   35 1
    24   13   14 2
    25   13   15 1
    26   15   16 1
    27   15   25 1
    28   15   17 1
    29   17   18 1
    30   17   36 1
    31   17   37 1
    32   18   19 1
    33   19   24 ar
    34   19   20 ar
    35   20   21 ar
    36   20   38 1
    37   21   22 ar
    38   21   39 1
    39   22   23 ar
    40   22   40 1
    41   23   24 ar
    42   23   41 1
    43   24   25 1
    44   26   42 1
@<TRIPOS>MOLECULE
ZINC03539616
   38    39     0     0     0
SMALL
USER_CHARGES

@<TRIPOS>ATOM
      1 C1          0.1420   -0.0497   -0.7851 C.3       1 <0>        -0.2514
      2 C2         -0.0152    1.2071    0.0314 C.2       1 <0>         0.2658
      3 O1          0.9153    1.6236    0.6886 O.2       1 <0>        -0.2864
      4 C3         -1.2967    1.9242    0.0361 C.ar      1 <0>        -0.1739
      5 C4         -2.3706    1.4483   -0.7266 C.ar      1 <0>        -0.0712
      6 C5         -3.5667    2.1181   -0.7150 C.ar      1 <0>        -0.1745
      7 C6         -3.7111    3.2760    0.0443 C.ar      1 <0>         0.0848
      8 C7         -2.6447    3.7557    0.7998 C.ar      1 <0>        -0.1428
      9 C8         -1.4468    3.0893    0.7988 C.ar      1 <0>        -0.0475
     10 N1         -4.9268    3.9566    0.0484 N.am      1 <0>        -0.3222
     11 C9         -4.9467    5.2998    0.1580 C.2       1 <0>         0.2955
     12 O2         -3.9068    5.9238    0.1566 O.2       1 <0>        -0.3398
     13 C10        -6.2612    6.0262    0.2822 C.3       1 <0>        -0.0270
     14 N2         -6.0152    7.4666    0.3864 N.pl3     1 <0>        -0.3607
     15 C11        -7.0900    8.3522    0.5116 C.ar      1 <0>         0.1055
     16 C12        -8.3916    7.8678    0.5315 C.ar      1 <0>        -0.1538
     17 C13        -9.4513    8.7437    0.6619 C.ar      1 <0>        -0.1290
     18 C14        -9.2176   10.1052    0.7599 C.ar      1 <0>         0.1052
     19 C15        -7.9214   10.5907    0.7340 C.ar      1 <0>        -0.1046
     20 C16        -6.8580    9.7176    0.6104 C.ar      1 <0>        -0.1269
     21 N3         -7.6747   12.0463    0.8394 N.pl3     1 <0>         0.5504
     22 O3         -6.5344   12.4739    0.8171 O.2       1 <0>        -0.3553
     23 O4         -8.6119   12.8165    0.9484 O.3       1 <0>        -0.3328
     24 F1        -10.2560   10.9608    0.8813 F         1 <0>        -0.0716
     25 H1          1.0687   -0.4078   -0.6707 H         1 <0>         0.0999
     26 H2         -0.5794   -0.7943   -0.4485 H         1 <0>         0.0965
     27 H3         -0.0330    0.1761   -1.8370 H         1 <0>         0.0980
     28 H4         -2.2580    0.5528   -1.3196 H         1 <0>         0.1375
     29 H5         -4.3968    1.7494   -1.2993 H         1 <0>         0.1329
     30 H6         -2.7615    4.6540    1.3878 H         1 <0>         0.1628
     31 H7         -0.6201    3.4619    1.3854 H         1 <0>         0.1603
     32 H8         -5.7588    3.4638   -0.0277 H         1 <0>         0.2356
     33 H9         -6.8723    5.8247   -0.5976 H         1 <0>         0.1001
     34 H10        -6.7840    5.6814    1.1744 H         1 <0>         0.1017
     35 H11        -5.1067    7.8060    0.3686 H         1 <0>         0.2621
     36 H12        -8.5746    6.8065    0.4499 H         1 <0>         0.1421
     37 H13       -10.4633    8.3671    0.6826 H         1 <0>         0.1598
     38 H14        -5.8469   10.0969    0.5903 H         1 <0>         0.1751
@<TRIPOS>BOND
     1    1    2 1
     2    1   25 1
     3    1   26 1
     4    1   27 1
     5    2    3 2
     6    2    4 1
     7    4    9 ar
     8    4    5 ar
     9    5    6 ar
    10    5   28 1
    11    6    7 ar
    12    6   29 1
    13    7    8 ar
    14    7   10 1
    15    8    9 ar
    16    8   30 1
    17    9   31 1
    18   10   11 am
    19   10   32 1
    20   11   12 2
    21   11   13 1
    22   13   14 1
    23   13   33 1
    24   13   34 1
    25   14   15 1
    26   14   35 1
    27   15   20 ar
    28   15   16 ar
    29   16   17 ar
    30   16   36 1
    31   17   18 ar
    32   17   37 1
    33   18   19 ar
    34   18   24 1
    35   19   20 ar
    36   19   21 1
    37   20   38 1
    38   21   22 2
    39   21   23 1
@<TRIPOS>MOLECULE
ZINC03542986
   46    49     0     0     0
SMALL
USER_CHARGES

@<TRIPOS>ATOM
      1 C1         -0.5940    4.6029    1.6632 C.3       1 <0>        -0.1505
      2 C2         -1.4302    3.4445    2.1426 C.2       1 <0>        -0.0843
      3 C3         -1.9771    3.3321    3.3647 C.2       1 <0>        -0.1600
      4 C4         -2.6976    2.0519    3.3793 C.2       1 <0>        -0.2546
      5 C5         -2.5151    1.5011    2.1248 C.2       1 <0>         0.0145
      6 N1         -1.7527    2.3427    1.4043 N.pl3     1 <0>        -0.1048
      7 C6         -1.3328    2.1124    0.0198 C.3       1 <0>         0.0232
      8 C7         -0.0167    1.3783    0.0096 C.ar      1 <0>        -0.1112
      9 C8          0.0021   -0.0041    0.0020 C.ar      1 <0>        -0.1057
     10 C9          1.2068   -0.6819   -0.0131 C.ar      1 <0>        -0.1119
     11 C10         2.3992    0.0235   -0.0203 C.ar      1 <0>         0.0168
     12 C11         2.3803    1.4160   -0.0126 C.ar      1 <0>         0.0050
     13 C12         1.1692    2.0887    0.0021 C.ar      1 <0>        -0.0973
     14 O1          3.6676    1.8698   -0.0223 O.3       1 <0>        -0.2055
     15 C13         4.4667    0.7503   -0.4482 C.3       1 <0>         0.1068
     16 O2          3.6983   -0.3951   -0.0349 O.3       1 <0>        -0.2044
     17 C14        -3.0712    0.1840    1.6481 C.3       1 <0>        -0.1602
     18 C15        -3.4580    1.4798    4.4925 C.2       1 <0>         0.3228
     19 O3         -4.0064    0.4050    4.3636 O.2       1 <0>        -0.3104
     20 C16        -3.5594    2.2257    5.7979 C.3       1 <0>        -0.2951
     21 S1         -4.5591    1.2647    6.9674 S.3       1 <0>         0.2683
     22 C17        -4.5829    2.2567    8.4234 C.2       1 <0>        -0.1923
     23 N2         -5.2180    1.9503    9.5942 N.pl3     1 <0>        -0.2476
     24 H1         -5.7356    1.1488    9.7693 H         1 <0>         0.2445
     25 C18        -4.9965    2.9712   10.4745 C.2       1 <0>         0.1202
     26 N3         -4.2563    3.8705    9.8742 N.2       1 <0>        -0.1638
     27 N4         -3.9899    3.4158    8.5760 N.2       1 <0>        -0.1064
     28 N5         -5.4720    3.0432   11.7775 N.pl3     1 <0>        -0.4013
     29 H2         -1.2406    5.3555    1.2119 H         1 <0>         0.0860
     30 H3         -0.0614    5.0406    2.5075 H         1 <0>         0.0995
     31 H4          0.1247    4.2506    0.9234 H         1 <0>         0.0773
     32 H5         -1.9023    4.0420    4.1751 H         1 <0>         0.1590
     33 H6         -1.2190    3.0694   -0.4894 H         1 <0>         0.1111
     34 H7         -2.0860    1.5149   -0.4937 H         1 <0>         0.1114
     35 H8         -0.9265   -0.5556    0.0083 H         1 <0>         0.1420
     36 H9          1.2184   -1.7618   -0.0191 H         1 <0>         0.1482
     37 H10         1.1516    3.1685    0.0077 H         1 <0>         0.1462
     38 H11         4.5905    0.7580   -1.5311 H         1 <0>         0.0895
     39 H12         5.4365    0.7607    0.0493 H         1 <0>         0.1339
     40 H13        -2.3600   -0.6119    1.8688 H         1 <0>         0.0974
     41 H14        -4.0130   -0.0186    2.1581 H         1 <0>         0.1284
     42 H15        -3.2429    0.2300    0.5727 H         1 <0>         0.0695
     43 H16        -2.6437    2.3622    6.1758 H         1 <0>         0.1287
     44 H17        -4.0302    3.1939    5.6275 H         1 <0>         0.1390
     45 H18        -6.0154    2.3240   12.1359 H         1 <0>         0.2242
     46 H19        -5.2608    3.8126   12.3291 H         1 <0>         0.2540
@<TRIPOS>BOND
     1    1    2 1
     2    1   29 1
     3    1   30 1
     4    1   31 1
     5    2    6 1
     6    2    3 2
     7    3    4 1
     8    3   32 1
     9    4    5 2
    10    4   18 1
    11    5    6 1
    12    5   17 1
    13    6    7 1
    14    7    8 1
    15    7   33 1
    16    7   34 1
    17    8   13 ar
    18    8    9 ar
    19    9   10 ar
    20    9   35 1
    21   10   11 ar
    22   10   36 1
    23   11   16 1
    24   11   12 ar
    25   12   13 ar
    26   12   14 1
    27   13   37 1
    28   14   15 1
    29   15   16 1
    30   15   38 1
    31   15   39 1
    32   17   40 1
    33   17   41 1
    34   17   42 1
    35   18   19 2
    36   18   20 1
    37   20   21 1
    38   20   43 1
    39   20   44 1
    40   21   22 1
    41   22   27 2
    42   22   23 1
    43   23   24 1
    44   23   25 1
    45   25   26 2
    46   25   28 1
    47   26   27 1
    48   28   45 1
    49   28   46 1
@<TRIPOS>MOLECULE
ZINC03543351
   43    44     0     0     0
SMALL
USER_CHARGES

@<TRIPOS>ATOM
      1 C1          7.1531   -1.2588   -1.3422 C.3       1 <0>        -0.1623
      2 C2          7.0409    0.2429   -1.3999 C.2       1 <0>        -0.0381
      3 C3          8.0972    1.1579   -1.3651 C.2       1 <0>        -0.2068
      4 C4          7.5699    2.4037   -1.4395 C.2       1 <0>        -0.0313
      5 N1          6.2265    2.3074   -1.5255 N.pl3     1 <0>        -0.1196
      6 H1          5.6097    3.0529   -1.5942 H         1 <0>         0.2578
      7 C5          5.8759    0.9761   -1.4966 C.2       1 <0>        -0.1431
      8 C6          4.5155    0.4367   -1.5628 C.2       1 <0>         0.3830
      9 O1          4.3361   -0.7658   -1.5337 O.2       1 <0>        -0.3625
     10 O2          3.4619    1.2738   -1.6562 O.3       1 <0>        -0.2478
     11 C7          2.1431    0.6692   -1.7176 C.3       1 <0>        -0.0222
     12 C8          1.0988    1.7510   -1.8186 C.2       1 <0>         0.2977
     13 O3          1.4331    2.9168   -1.8370 O.2       1 <0>        -0.3282
     14 N2         -0.2066    1.4231   -1.8885 N.am      1 <0>        -0.3266
     15 C9         -1.1823    2.4275   -1.8786 C.ar      1 <0>         0.0483
     16 C10        -0.9760    3.5899   -1.1478 C.ar      1 <0>        -0.1018
     17 C11        -1.9376    4.5814   -1.1433 C.ar      1 <0>        -0.1487
     18 C12        -3.1112    4.4122   -1.8584 C.ar      1 <0>         0.0841
     19 C13        -3.3211    3.2514   -2.5837 C.ar      1 <0>        -0.1495
     20 C14        -2.3598    2.2598   -2.5951 C.ar      1 <0>        -0.1349
     21 F1         -4.0526    5.3812   -1.8489 F         1 <0>        -0.1059
     22 C15         8.3567    3.6890   -1.4338 C.3       1 <0>        -0.1566
     23 C16         9.5620    0.8189   -1.2625 C.3       1 <0>         0.1176
     24 H2         10.1566    1.6995   -1.5057 H         1 <0>         0.1170
     25 C17         9.8819    0.3653    0.1633 C.3       1 <0>        -0.2458
     26 O4          9.8727   -0.2333   -2.1781 O.3       1 <0>        -0.3456
     27 H3          7.2439   -1.6555   -2.3533 H         1 <0>         0.0940
     28 H4          8.0341   -1.5354   -0.7629 H         1 <0>         0.0722
     29 H5          6.2625   -1.6718   -0.8685 H         1 <0>         0.1114
     30 H6          1.9708    0.0809   -0.8164 H         1 <0>         0.1118
     31 H7          2.0808    0.0214   -2.5920 H         1 <0>         0.1115
     32 H8         -0.4700    0.4916   -1.9496 H         1 <0>         0.2343
     33 H9         -0.0626    3.7205   -0.5866 H         1 <0>         0.1658
     34 H10        -1.7756    5.4876   -0.5785 H         1 <0>         0.1501
     35 H11        -4.2370    3.1216   -3.1411 H         1 <0>         0.1476
     36 H12        -2.5237    1.3548   -3.1612 H         1 <0>         0.1363
     37 H13         8.6953    3.9122   -2.4455 H         1 <0>         0.0984
     38 H14         7.7240    4.5008   -1.0750 H         1 <0>         0.0820
     39 H15         9.2200    3.5836   -0.7767 H         1 <0>         0.0980
     40 H16         9.2873   -0.5152    0.4064 H         1 <0>         0.0793
     41 H17        10.9414    0.1201    0.2375 H         1 <0>         0.0841
     42 H18         9.6449    1.1680    0.8617 H         1 <0>         0.0830
     43 H19         9.4565   -1.0789   -1.9614 H         1 <0>         0.2119
@<TRIPOS>BOND
     1    1    2 1
     2    1   27 1
     3    1   28 1
     4    1   29 1
     5    2    7 2
     6    2    3 1
     7    3    4 2
     8    3   23 1
     9    4    5 1
    10    4   22 1
    11    5    6 1
    12    5    7 1
    13    7    8 1
    14    8    9 2
    15    8   10 1
    16   10   11 1
    17   11   12 1
    18   11   30 1
    19   11   31 1
    20   12   13 2
    21   12   14 am
    22   14   15 1
    23   14   32 1
    24   15   20 ar
    25   15   16 ar
    26   16   17 ar
    27   16   33 1
    28   17   18 ar
    29   17   34 1
    30   18   19 ar
    31   18   21 1
    32   19   20 ar
    33   19   35 1
    34   20   36 1
    35   22   37 1
    36   22   38 1
    37   22   39 1
    38   23   24 1
    39   23   25 1
    40   23   26 1
    41   25   40 1
    42   25   41 1
    43   25   42 1
    44   26   43 1
@<TRIPOS>MOLECULE
ZINC03545052
   42    44     0     0     0
SMALL
USER_CHARGES

@<TRIPOS>ATOM
      1 C1          6.3434    4.3756   -5.6116 C.3       1 <0>        -0.2107
      2 C2          7.3716    3.8077   -4.6311 C.3       1 <0>        -0.1279
      3 C3          7.5331    4.7533   -3.4689 C.ar      1 <0>        -0.1105
      4 C4          8.5475    5.6907   -3.4761 C.ar      1 <0>        -0.1071
      5 C5          8.6964    6.5587   -2.4102 C.ar      1 <0>        -0.1469
      6 C6          7.8307    6.4915   -1.3336 C.ar      1 <0>        -0.1174
      7 C7          6.8118    5.5596   -1.3222 C.ar      1 <0>        -0.1339
      8 C8          6.6624    4.6829   -2.3893 C.ar      1 <0>         0.0760
      9 N1          5.6341    3.7354   -2.3791 N.pl3     1 <0>        -0.2533
     10 C9          5.1037    3.3047   -1.1785 C.ar      1 <0>         0.2757
     11 N2          4.0516    2.4890   -1.1691 N.ar      1 <0>        -0.3363
     12 C10         3.5400    2.0811   -0.0211 C.ar      1 <0>         0.1623
     13 N3          4.0767    2.4721    1.1217 N.ar      1 <0>        -0.3380
     14 C11         5.1320    3.2832    1.1203 C.ar      1 <0>         0.2762
     15 N4          5.6459    3.6998   -0.0320 N.ar      1 <0>        -0.3647
     16 N5          5.6914    3.6912    2.3140 N.pl3     1 <0>        -0.3638
     17 C12         2.3452    1.1627   -0.0149 C.3       1 <0>         0.0659
     18 O1          1.1274    1.9531    0.0075 O.3       1 <0>        -0.2439
     19 C13        -0.0406    1.2782    0.0156 C.2       1 <0>         0.3987
     20 O2         -0.0403    0.0621    0.0043 O.2       1 <0>        -0.3476
     21 C14        -1.3092    2.0102    0.0320 C.2       1 <0>        -0.0963
     22 C15        -2.5573    1.4539    0.0362 C.2       1 <0>        -0.1199
     23 C16        -3.4726    2.5172    0.0530 C.2       1 <0>        -0.2387
     24 C17        -2.7533    3.6616    0.0583 C.2       1 <0>        -0.0634
     25 O3         -1.4505    3.3520    0.0515 O.3       1 <0>        -0.0290
     26 H1          6.6854    5.3442   -5.9761 H         1 <0>         0.0821
     27 H2          6.2266    3.6916   -6.4522 H         1 <0>         0.0754
     28 H3          5.3858    4.4955   -5.1050 H         1 <0>         0.0721
     29 H4          8.3292    3.6878   -5.1378 H         1 <0>         0.0926
     30 H5          7.0296    2.8390   -4.2666 H         1 <0>         0.0858
     31 H6          9.2250    5.7460   -4.3154 H         1 <0>         0.1314
     32 H7          9.4902    7.2910   -2.4184 H         1 <0>         0.1280
     33 H8          7.9495    7.1712   -0.5027 H         1 <0>         0.1291
     34 H9          6.1339    5.5101   -0.4829 H         1 <0>         0.1705
     35 H10         5.2932    3.3806   -3.2150 H         1 <0>         0.2621
     36 H11         5.3155    3.3869    3.1548 H         1 <0>         0.2446
     37 H12         6.4605    4.2823    2.3122 H         1 <0>         0.2420
     38 H13         2.3812    0.5257    0.8688 H         1 <0>         0.1182
     39 H14         2.3592    0.5423   -0.9110 H         1 <0>         0.1180
     40 H15        -2.7935    0.4001    0.0279 H         1 <0>         0.1759
     41 H16        -4.5496    2.4365    0.0601 H         1 <0>         0.1633
     42 H17        -3.1620    4.6612    0.0707 H         1 <0>         0.2036
@<TRIPOS>BOND
     1    1    2 1
     2    1   26 1
     3    1   27 1
     4    1   28 1
     5    2    3 1
     6    2   29 1
     7    2   30 1
     8    3    8 ar
     9    3    4 ar
    10    4    5 ar
    11    4   31 1
    12    5    6 ar
    13    5   32 1
    14    6    7 ar
    15    6   33 1
    16    7    8 ar
    17    7   34 1
    18    8    9 1
    19    9   10 1
    20    9   35 1
    21   10   15 ar
    22   10   11 ar
    23   11   12 ar
    24   12   13 ar
    25   12   17 1
    26   13   14 ar
    27   14   15 ar
    28   14   16 1
    29   16   36 1
    30   16   37 1
    31   17   18 1
    32   17   38 1
    33   17   39 1
    34   18   19 1
    35   19   20 2
    36   19   21 1
    37   21   25 1
    38   21   22 2
    39   22   23 1
    40   22   40 1
    41   23   24 2
    42   23   41 1
    43   24   25 1
    44   24   42 1
@<TRIPOS>MOLECULE
ZINC03545071
   42    44     0     0     0
SMALL
USER_CHARGES

@<TRIPOS>ATOM
      1 C1         -2.5172   10.5869   -5.4982 C.3       1 <0>        -0.2106
      2 C2         -1.7145   11.4326   -4.5076 C.3       1 <0>        -0.1282
      3 C3         -2.5907   11.8046   -3.3393 C.ar      1 <0>        -0.1100
      4 C4         -3.2525   13.0170   -3.3298 C.ar      1 <0>        -0.1069
      5 C5         -4.0566   13.3591   -2.2584 C.ar      1 <0>        -0.1467
      6 C6         -4.2012   12.4892   -1.1929 C.ar      1 <0>        -0.1175
      7 C7         -3.5458   11.2737   -1.1981 C.ar      1 <0>        -0.1343
      8 C8         -2.7334   10.9291   -2.2709 C.ar      1 <0>         0.0758
      9 N1         -2.0652    9.7007   -2.2776 N.pl3     1 <0>        -0.2531
     10 C9         -1.7753    9.0657   -1.0856 C.ar      1 <0>         0.2759
     11 N2         -1.2408    7.8464   -1.0927 N.ar      1 <0>        -0.3402
     12 C10        -0.9685    7.2359    0.0470 C.ar      1 <0>         0.1693
     13 N3         -1.2153    7.8367    1.1981 N.ar      1 <0>        -0.3417
     14 C11        -1.7446    9.0579    1.2133 C.ar      1 <0>         0.2764
     15 N4         -2.0248    9.6729    0.0693 N.ar      1 <0>        -0.3666
     16 N5         -2.0024    9.6842    2.4156 N.pl3     1 <0>        -0.3634
     17 C12        -0.3692    5.8533    0.0344 C.3       1 <0>        -0.1954
     18 S1         -1.6948    4.6209    0.0479 S.3       1 <0>         0.2586
     19 C13        -0.7377    3.1417    0.0302 C.2       1 <0>        -0.2168
     20 N6          0.5725    3.0598    0.0120 N.2       1 <0>        -0.1065
     21 N7          0.9328    1.8261    0.0032 N.2       1 <0>        -0.0819
     22 C14        -0.1165    1.0537    0.0152 C.2       1 <0>        -0.1327
     23 N8         -1.2183    1.8637    0.0276 N.pl3     1 <0>        -0.1602
     24 C15        -2.6226    1.4467    0.0389 C.3       1 <0>        -0.0678
     25 H1         -1.8834   10.3178   -6.3432 H         1 <0>         0.0758
     26 H2         -2.8663    9.6809   -5.0029 H         1 <0>         0.0715
     27 H3         -3.3737   11.1594   -5.8542 H         1 <0>         0.0819
     28 H4         -1.3654   12.3387   -5.0029 H         1 <0>         0.0929
     29 H5         -0.8580   10.8601   -4.1516 H         1 <0>         0.0866
     30 H6         -3.1420   13.6984   -4.1605 H         1 <0>         0.1316
     31 H7         -4.5732   14.3075   -2.2535 H         1 <0>         0.1281
     32 H8         -4.8303   12.7592   -0.3576 H         1 <0>         0.1289
     33 H9         -3.6621   10.5933   -0.3675 H         1 <0>         0.1698
     34 H10        -1.8053    9.2945   -3.1192 H         1 <0>         0.2624
     35 H11        -1.7979    9.2346    3.2504 H         1 <0>         0.2448
     36 H12        -2.3881   10.5742    2.4259 H         1 <0>         0.2421
     37 H13         0.2586    5.7213    0.9156 H         1 <0>         0.1480
     38 H14         0.2348    5.7273   -0.8642 H         1 <0>         0.1476
     39 H15        -0.1161   -0.0263    0.0112 H         1 <0>         0.2102
     40 H16        -2.9618    1.3405    1.0693 H         1 <0>         0.0963
     41 H17        -3.2287    2.1979   -0.4676 H         1 <0>         0.1075
     42 H18        -2.7222    0.4916   -0.4768 H         1 <0>         0.0985
@<TRIPOS>BOND
     1    1    2 1
     2    1   25 1
     3    1   26 1
     4    1   27 1
     5    2    3 1
     6    2   28 1
     7    2   29 1
     8    3    8 ar
     9    3    4 ar
    10    4    5 ar
    11    4   30 1
    12    5    6 ar
    13    5   31 1
    14    6    7 ar
    15    6   32 1
    16    7    8 ar
    17    7   33 1
    18    8    9 1
    19    9   10 1
    20    9   34 1
    21   10   15 ar
    22   10   11 ar
    23   11   12 ar
    24   12   13 ar
    25   12   17 1
    26   13   14 ar
    27   14   15 ar
    28   14   16 1
    29   16   35 1
    30   16   36 1
    31   17   18 1
    32   17   37 1
    33   17   38 1
    34   18   19 1
    35   19   23 1
    36   19   20 2
    37   20   21 1
    38   21   22 2
    39   22   23 1
    40   22   39 1
    41   23   24 1
    42   24   40 1
    43   24   41 1
    44   24   42 1
@<TRIPOS>MOLECULE
ZINC03545563
   40    41     0     0     0
SMALL
USER_CHARGES

@<TRIPOS>ATOM
      1 C1          2.4257    4.1084    0.0005 C.3       1 <0>        -0.0633
      2 O1          1.1601    3.4449    0.0090 O.3       1 <0>        -0.2106
      3 C2          1.1759    2.0860    0.0020 C.ar      1 <0>         0.1006
      4 C3         -0.0167    1.3772    0.0096 C.ar      1 <0>        -0.1557
      5 C4          0.0021   -0.0041    0.0020 C.ar      1 <0>        -0.0837
      6 C5          1.2080   -0.6802   -0.0131 C.ar      1 <0>        -0.1244
      7 C6          2.3980    0.0239   -0.0207 C.ar      1 <0>        -0.0806
      8 C7          2.3846    1.4052   -0.0127 C.ar      1 <0>        -0.2188
      9 C8          1.2256   -2.1871   -0.0209 C.3       1 <0>        -0.1182
     10 C9          1.2174   -2.6898   -1.4659 C.3       1 <0>         0.0010
     11 O2          1.2343   -4.1417   -1.4734 O.3       1 <0>        -0.2737
     12 C10         1.2297   -4.7472   -2.6768 C.2       1 <0>         0.3487
     13 O3          1.2121   -4.0805   -3.6922 O.2       1 <0>        -0.3467
     14 C11         1.2461   -6.2213   -2.7617 C.ar      1 <0>        -0.1331
     15 C12         1.2722   -6.9906   -1.5961 C.ar      1 <0>        -0.0205
     16 C13         1.2821   -8.3665   -1.6818 C.ar      1 <0>        -0.1585
     17 C14         1.2778   -8.9862   -2.9209 C.ar      1 <0>         0.0522
     18 C15         1.2572   -8.2289   -4.0804 C.ar      1 <0>        -0.7689
     19 C16         1.2414   -6.8519   -4.0077 C.ar      1 <0>         0.0445
     20 S1          1.2508   -9.0265   -5.6515 S.o2      1 <0>         2.7641
     21 O4          0.2376  -10.0215   -5.5976 O.2       1 <0>        -0.8983
     22 O5          1.2554   -7.9962   -6.6300 O.2       1 <0>        -0.9103
     23 N1          2.6928   -9.8270   -5.8001 N.pl3     1 <0>        -0.9275
     24 Cl1         1.2976  -10.7192   -3.0207 Cl        1 <0>         0.0130
     25 H1          2.9777    3.8266   -0.8961 H         1 <0>         0.0691
     26 H2          2.2703    5.1873    0.0074 H         1 <0>         0.1095
     27 H3          2.9944    3.8176    0.8838 H         1 <0>         0.0682
     28 H4         -0.9589    1.9049    0.0169 H         1 <0>         0.1460
     29 H5         -0.9260   -0.5563    0.0083 H         1 <0>         0.1361
     30 H6          3.3387   -0.5065   -0.0325 H         1 <0>         0.1317
     31 H7          3.3144    1.9547   -0.0186 H         1 <0>         0.1368
     32 H8          2.1247   -2.5426    0.4824 H         1 <0>         0.0968
     33 H9          0.3449   -2.5634    0.4997 H         1 <0>         0.0982
     34 H10         0.3183   -2.3343   -1.9692 H         1 <0>         0.0976
     35 H11         2.0981   -2.3135   -1.9865 H         1 <0>         0.0958
     36 H12         1.2801   -6.5086   -0.6296 H         1 <0>         0.1599
     37 H13         1.2978   -8.9624   -0.7813 H         1 <0>         0.1555
     38 H14         1.2258   -6.2624   -4.9125 H         1 <0>         0.1902
     39 H15         3.3448   -9.7890   -5.0829 H         1 <0>         0.2305
     40 H16         2.8855  -10.3338   -6.6044 H         1 <0>         0.2468
@<TRIPOS>BOND
     1    1    2 1
     2    1   25 1
     3    1   26 1
     4    1   27 1
     5    2    3 1
     6    3    8 ar
     7    3    4 ar
     8    4    5 ar
     9    4   28 1
    10    5    6 ar
    11    5   29 1
    12    6    7 ar
    13    6    9 1
    14    7    8 ar
    15    7   30 1
    16    8   31 1
    17    9   10 1
    18    9   32 1
    19    9   33 1
    20   10   11 1
    21   10   34 1
    22   10   35 1
    23   11   12 1
    24   12   13 2
    25   12   14 1
    26   14   19 ar
    27   14   15 ar
    28   15   16 ar
    29   15   36 1
    30   16   17 ar
    31   16   37 1
    32   17   18 ar
    33   17   24 1
    34   18   19 ar
    35   18   20 1
    36   19   38 1
    37   20   21 2
    38   20   22 2
    39   20   23 1
    40   23   39 1
    41   23   40 1
@<TRIPOS>MOLECULE
ZINC03549491
   41    43     0     0     0
SMALL
USER_CHARGES

@<TRIPOS>ATOM
      1 C1         -1.4924    6.9468   -1.6640 C.3       1 <0>        -0.2360
      2 C2         -1.3333    5.6271   -0.9539 C.2       1 <0>         0.3023
      3 O1         -1.9489    5.4105    0.0685 O.2       1 <0>        -0.3555
      4 N1         -0.5070    4.6876   -1.4548 N.am      1 <0>        -0.3265
      5 C3         -0.2849    3.5016   -0.7463 C.ar      1 <0>         0.0759
      6 C4         -1.3181    2.9206   -0.0214 C.ar      1 <0>        -0.1389
      7 C5         -1.0980    1.7530    0.6834 C.ar      1 <0>        -0.0967
      8 C6          0.1478    1.1556    0.6647 C.ar      1 <0>        -0.1729
      9 C7          1.1835    1.7284   -0.0628 C.ar      1 <0>         0.0741
     10 C8          0.9656    2.9016   -0.7715 C.ar      1 <0>        -0.1627
     11 N2          2.4442    1.1238   -0.0805 N.am      1 <0>        -0.3075
     12 C9          3.5550    1.8836   -0.1543 C.2       1 <0>         0.3824
     13 O2          3.4665    3.0956   -0.1121 O.2       1 <0>        -0.3560
     14 C10         4.8789    1.2445   -0.2862 C.2       1 <0>        -0.1248
     15 C11         6.0970    2.0660   -0.3737 C.ar      1 <0>        -0.0295
     16 C12         6.0732    3.4557   -0.3278 C.ar      1 <0>        -0.1111
     17 C13         7.2582    4.1559   -0.4105 C.ar      1 <0>        -0.1042
     18 C14         8.4705    3.4898   -0.5342 C.ar      1 <0>        -0.1332
     19 C15         8.5167    2.1126   -0.5769 C.ar      1 <0>        -0.0656
     20 C16         7.3320    1.3878   -0.4944 C.ar      1 <0>        -0.1300
     21 C17         7.2902   -0.0806   -0.5326 C.2       1 <0>         0.3107
     22 O3          8.3141   -0.7303   -0.6395 O.2       1 <0>        -0.3360
     23 N3          6.0908   -0.6918   -0.4460 N.am      1 <0>        -0.1817
     24 N4          4.9833   -0.0615   -0.3324 N.2       1 <0>        -0.0259
     25 C18         6.0545   -2.1558   -0.4845 C.3       1 <0>        -0.0521
     26 H1         -0.8658    6.9573   -2.5558 H         1 <0>         0.0781
     27 H2         -2.5352    7.0816   -1.9510 H         1 <0>         0.1120
     28 H3         -1.1911    7.7560   -0.9987 H         1 <0>         0.1161
     29 H4         -0.0663    4.8336   -2.3065 H         1 <0>         0.2329
     30 H5         -2.2931    3.3848   -0.0051 H         1 <0>         0.1652
     31 H6         -1.9015    1.3060    1.2499 H         1 <0>         0.1366
     32 H7          0.3166    0.2427    1.2165 H         1 <0>         0.1306
     33 H8          1.7691    3.3489   -1.3379 H         1 <0>         0.1568
     34 H9          2.5194    0.1576   -0.0397 H         1 <0>         0.2477
     35 H10         5.1350    3.9818   -0.2318 H         1 <0>         0.1883
     36 H11         7.2433    5.2353   -0.3792 H         1 <0>         0.1371
     37 H12         9.3873    4.0571   -0.5979 H         1 <0>         0.1368
     38 H13         9.4632    1.6014   -0.6739 H         1 <0>         0.1562
     39 H14         5.0219   -2.4959   -0.4051 H         1 <0>         0.1031
     40 H15         6.4807   -2.5052   -1.4249 H         1 <0>         0.1016
     41 H16         6.6337   -2.5557    0.3477 H         1 <0>         0.1021
@<TRIPOS>BOND
     1    1    2 1
     2    1   26 1
     3    1   27 1
     4    1   28 1
     5    2    3 2
     6    2    4 am
     7    4    5 1
     8    4   29 1
     9    5   10 ar
    10    5    6 ar
    11    6    7 ar
    12    6   30 1
    13    7    8 ar
    14    7   31 1
    15    8    9 ar
    16    8   32 1
    17    9   10 ar
    18    9   11 1
    19   10   33 1
    20   11   12 am
    21   11   34 1
    22   12   13 2
    23   12   14 1
    24   14   24 2
    25   14   15 1
    26   15   20 ar
    27   15   16 ar
    28   16   17 ar
    29   16   35 1
    30   17   18 ar
    31   17   36 1
    32   18   19 ar
    33   18   37 1
    34   19   20 ar
    35   19   38 1
    36   20   21 1
    37   21   22 2
    38   21   23 am
    39   23   24 1
    40   23   25 1
    41   25   39 1
    42   25   40 1
    43   25   41 1
@<TRIPOS>MOLECULE
ZINC03551212
   41    43     0     0     0
SMALL
USER_CHARGES

@<TRIPOS>ATOM
      1 C1         -5.0958    4.9555    1.4971 C.3       1 <0>        -0.2065
      2 C2         -4.6896    4.6653    0.0509 C.3       1 <0>        -0.1285
      3 C3         -3.4656    3.7862    0.0396 C.ar      1 <0>        -0.0586
      4 C4         -3.6062    2.4098    0.0334 C.ar      1 <0>        -0.1273
      5 C5         -2.4899    1.5994    0.0235 C.ar      1 <0>        -0.0802
      6 C6         -1.2165    2.1709    0.0198 C.ar      1 <0>        -0.0198
      7 C7         -1.0816    3.5600    0.0320 C.ar      1 <0>        -0.1187
      8 C8         -2.2062    4.3591    0.0360 C.ar      1 <0>        -0.1250
      9 C9         -0.0157    1.3085    0.0092 C.2       1 <0>        -0.0288
     10 N1          1.2939    1.7302   -0.0010 N.pl3     1 <0>        -0.1863
     11 H1          1.6149    2.6455    0.0004 H         1 <0>         0.2600
     12 C10         2.0476    0.5915   -0.0143 C.2       1 <0>        -0.2310
     13 N2          1.2158   -0.4263   -0.0118 N.2       1 <0>        -0.1095
     14 N3          0.0021   -0.0041    0.0020 N.2       1 <0>        -0.0762
     15 S1          3.8073    0.5030   -0.0316 S.3       1 <0>         0.3192
     16 C11         4.0316   -1.2930   -0.0426 C.3       1 <0>        -0.3043
     17 C12         5.5037   -1.6153   -0.0583 C.2       1 <0>         0.3258
     18 O1          6.3207   -0.7190   -0.0617 O.2       1 <0>        -0.3426
     19 N4          5.9123   -2.8996   -0.0685 N.am      1 <0>        -0.2817
     20 C13         7.2750   -3.1979   -0.0831 C.2       1 <0>         0.0019
     21 C14         8.3508   -2.2707   -0.0888 C.2       1 <0>        -0.2360
     22 C15         9.4547   -3.0520   -0.1027 C.2       1 <0>        -0.0885
     23 O2          9.0252   -4.3222   -0.1046 O.3       1 <0>         0.0481
     24 N5          7.8179   -4.3870   -0.0884 N.2       1 <0>        -0.0751
     25 C16        10.8877   -2.5858   -0.1131 C.3       1 <0>        -0.1340
     26 H2         -5.9811    5.5913    1.5053 H         1 <0>         0.0759
     27 H3         -5.3170    4.0181    2.0074 H         1 <0>         0.0790
     28 H4         -4.2787    5.4638    2.0090 H         1 <0>         0.0772
     29 H5         -4.4684    5.6028   -0.4594 H         1 <0>         0.0888
     30 H6         -5.5067    4.1570   -0.4610 H         1 <0>         0.0905
     31 H7         -4.5921    1.9689    0.0366 H         1 <0>         0.1384
     32 H8         -2.6010    0.5251    0.0190 H         1 <0>         0.1575
     33 H9         -0.0991    4.0084    0.0340 H         1 <0>         0.1208
     34 H10        -2.1033    5.4342    0.0409 H         1 <0>         0.1349
     35 H11         3.5753   -1.7216    0.8497 H         1 <0>         0.1432
     36 H12         3.5583   -1.7128   -0.9302 H         1 <0>         0.1432
     37 H13         5.2588   -3.6165   -0.0658 H         1 <0>         0.2487
     38 H14         8.2993   -1.1920   -0.0830 H         1 <0>         0.2079
     39 H15        11.2424   -2.4788    0.9119 H         1 <0>         0.0992
     40 H16        11.5039   -3.3171   -0.6363 H         1 <0>         0.0958
     41 H17        10.9534   -1.6245   -0.6226 H         1 <0>         0.1024
@<TRIPOS>BOND
     1    1    2 1
     2    1   26 1
     3    1   27 1
     4    1   28 1
     5    2    3 1
     6    2   29 1
     7    2   30 1
     8    3    8 ar
     9    3    4 ar
    10    4    5 ar
    11    4   31 1
    12    5    6 ar
    13    5   32 1
    14    6    7 ar
    15    6    9 1
    16    7    8 ar
    17    7   33 1
    18    8   34 1
    19    9   14 2
    20    9   10 1
    21   10   11 1
    22   10   12 1
    23   12   13 2
    24   12   15 1
    25   13   14 1
    26   15   16 1
    27   16   17 1
    28   16   35 1
    29   16   36 1
    30   17   18 2
    31   17   19 am
    32   19   20 1
    33   19   37 1
    34   20   24 2
    35   20   21 1
    36   21   22 2
    37   21   38 1
    38   22   23 1
    39   22   25 1
    40   23   24 1
    41   25   39 1
    42   25   40 1
    43   25   41 1
@<TRIPOS>MOLECULE
ZINC03562567
   41    43     0     0     0
SMALL
USER_CHARGES

@<TRIPOS>ATOM
      1 C1          2.1628    5.7039    0.6503 C.3       1 <0>        -0.0537
      2 N1          2.1779    4.2391    0.6335 N.am      1 <0>        -0.3918
      3 C2          1.1723    3.5615    0.0452 C.2       1 <0>         0.3476
      4 O1          0.2526    4.1660   -0.4716 O.2       1 <0>        -0.3705
      5 C3          1.1875    2.0858    0.0282 C.ar      1 <0>        -0.1439
      6 C4          0.1455    1.3817   -0.5815 C.ar      1 <0>        -0.0494
      7 C5          0.1629    0.0054   -0.5960 C.ar      1 <0>        -0.1704
      8 C6          1.2165   -0.6850   -0.0044 C.ar      1 <0>         0.0800
      9 C7          2.2554    0.0131    0.6038 C.ar      1 <0>        -0.1394
     10 C8          2.2439    1.3895    0.6218 C.ar      1 <0>        -0.0898
     11 N2          1.2311   -2.0781   -0.0209 N.am      1 <0>        -0.3085
     12 C9          2.4002   -2.7385   -0.1373 C.2       1 <0>         0.3857
     13 O2          3.4483   -2.1224   -0.1442 O.2       1 <0>        -0.3563
     14 C10         2.4081   -4.2095   -0.2565 C.2       1 <0>        -0.1263
     15 C11         3.6795   -4.9390   -0.3902 C.ar      1 <0>        -0.0294
     16 C12         4.9157   -4.3023   -0.4013 C.ar      1 <0>        -0.1114
     17 C13         6.0640   -5.0557   -0.5245 C.ar      1 <0>        -0.1032
     18 C14         5.9988   -6.4386   -0.6326 C.ar      1 <0>        -0.1325
     19 C15         4.7837   -7.0900   -0.6192 C.ar      1 <0>        -0.0649
     20 C16         3.6136   -6.3477   -0.4952 C.ar      1 <0>        -0.1297
     21 C17         2.2781   -6.9604   -0.4724 C.2       1 <0>         0.3107
     22 O3          2.1449   -8.1671   -0.5626 O.2       1 <0>        -0.3340
     23 N3          1.2033   -6.1547   -0.3488 N.am      1 <0>        -0.1808
     24 N4          1.2824   -4.8817   -0.2499 N.2       1 <0>        -0.0247
     25 C18        -0.1258   -6.7705   -0.3272 C.3       1 <0>        -0.0525
     26 H1          1.2707    6.0521    1.1709 H         1 <0>         0.0858
     27 H2          3.0506    6.0705    1.1657 H         1 <0>         0.0744
     28 H3          2.1559    6.0790   -0.3731 H         1 <0>         0.0865
     29 H4          2.9117    3.7568    1.0458 H         1 <0>         0.2225
     30 H5         -0.6702    1.9170   -1.0446 H         1 <0>         0.1602
     31 H6         -0.6422   -0.5393   -1.0666 H         1 <0>         0.1374
     32 H7          3.0713   -0.5256    1.0627 H         1 <0>         0.1662
     33 H8          3.0503    1.9307    1.0943 H         1 <0>         0.1288
     34 H9          0.3998   -2.5727    0.0515 H         1 <0>         0.2498
     35 H10         4.9757   -3.2271   -0.3180 H         1 <0>         0.1872
     36 H11         7.0256   -4.5643   -0.5375 H         1 <0>         0.1376
     37 H12         6.9100   -7.0103   -0.7287 H         1 <0>         0.1375
     38 H13         4.7407   -8.1658   -0.7044 H         1 <0>         0.1567
     39 H14        -0.8841   -5.9944   -0.2235 H         1 <0>         0.1032
     40 H15        -0.2888   -7.3158   -1.2568 H         1 <0>         0.1028
     41 H16        -0.1934   -7.4594    0.5148 H         1 <0>         0.1024
@<TRIPOS>BOND
     1    1    2 1
     2    1   26 1
     3    1   27 1
     4    1   28 1
     5    2    3 am
     6    2   29 1
     7    3    4 2
     8    3    5 1
     9    5   10 ar
    10    5    6 ar
    11    6    7 ar
    12    6   30 1
    13    7    8 ar
    14    7   31 1
    15    8    9 ar
    16    8   11 1
    17    9   10 ar
    18    9   32 1
    19   10   33 1
    20   11   12 am
    21   11   34 1
    22   12   13 2
    23   12   14 1
    24   14   24 2
    25   14   15 1
    26   15   20 ar
    27   15   16 ar
    28   16   17 ar
    29   16   35 1
    30   17   18 ar
    31   17   36 1
    32   18   19 ar
    33   18   37 1
    34   19   20 ar
    35   19   38 1
    36   20   21 1
    37   21   22 2
    38   21   23 am
    39   23   24 1
    40   23   25 1
    41   25   39 1
    42   25   40 1
    43   25   41 1
@<TRIPOS>MOLECULE
ZINC03567268
   44    45     0     0     0
SMALL
USER_CHARGES

@<TRIPOS>ATOM
      1 C1          8.2908    8.7721    1.3361 C.3       1 <0>        -0.2002
      2 C2          7.3696    7.5950    1.0096 C.3       1 <0>        -0.0318
      3 C3          7.6526    6.4427    1.9756 C.3       1 <0>        -0.2079
      4 C4          7.6241    7.1311   -0.4260 C.3       1 <0>        -0.2037
      5 C5          5.9328    8.0273    1.1506 C.ar      1 <0>        -0.1009
      6 C6          5.6301    9.3541    1.3872 C.ar      1 <0>        -0.1129
      7 C7          4.3121    9.7516    1.5157 C.ar      1 <0>        -0.1453
      8 C8          3.2929    8.8230    1.4080 C.ar      1 <0>        -0.1133
      9 C9          3.5887    7.4958    1.1667 C.ar      1 <0>        -0.1378
     10 C10         4.9119    7.0924    1.0423 C.ar      1 <0>         0.0669
     11 N1          5.2153    5.7476    0.8027 N.am      1 <0>        -0.3272
     12 C11         4.3440    4.7853    1.1652 C.2       1 <0>         0.2930
     13 O1          3.2816    5.0867    1.6667 O.2       1 <0>        -0.3187
     14 C12         4.6899    3.3348    0.9475 C.3       1 <0>        -0.0314
     15 O2          3.5977    2.5010    1.4169 O.3       1 <0>        -0.1968
     16 C13         3.7491    1.1679    1.2935 C.2       1 <0>         0.3924
     17 O3          4.7658    0.7145    0.8069 O.2       1 <0>        -0.3975
     18 C14         2.6797    0.2583    1.7494 C.ar      1 <0>        -0.1782
     19 C15         2.8912   -1.1307    1.7602 C.ar      1 <0>         0.1860
     20 N2          1.9220   -1.9397    2.1729 N.ar      1 <0>        -0.2127
     21 C16         0.7673   -1.4372    2.5700 C.ar      1 <0>        -0.0160
     22 C17         0.5590   -0.0651    2.5591 C.ar      1 <0>        -0.1860
     23 N3          1.5110    0.7495    2.1525 N.ar      1 <0>        -0.0320
     24 N4          4.1017   -1.6525    1.3441 N.pl3     1 <0>        -0.3722
     25 H1          8.1094    9.1026    2.3589 H         1 <0>         0.0819
     26 H2          9.3300    8.4595    1.2342 H         1 <0>         0.0752
     27 H3          8.0891    9.5930    0.6480 H         1 <0>         0.0787
     28 H4          7.0722    5.5691    1.6790 H         1 <0>         0.0694
     29 H5          8.7148    6.1992    1.9495 H         1 <0>         0.0753
     30 H6          7.3725    6.7389    2.9865 H         1 <0>         0.0897
     31 H7          7.5706    7.9868   -1.0991 H         1 <0>         0.0871
     32 H8          8.6135    6.6785   -0.4916 H         1 <0>         0.0771
     33 H9          6.8695    6.3977   -0.7100 H         1 <0>         0.0646
     34 H10         6.4237   10.0817    1.4715 H         1 <0>         0.1364
     35 H11         4.0780   10.7897    1.7004 H         1 <0>         0.1283
     36 H12         2.2644    9.1368    1.5082 H         1 <0>         0.1338
     37 H13         2.7922    6.7719    1.0782 H         1 <0>         0.1807
     38 H14         6.0526    5.5079    0.3757 H         1 <0>         0.2443
     39 H15         5.5970    3.0906    1.5003 H         1 <0>         0.1083
     40 H16         4.8528    3.1557   -0.1153 H         1 <0>         0.1081
     41 H17        -0.0192   -2.0974    2.9048 H         1 <0>         0.1703
     42 H18        -0.3903    0.3367    2.8815 H         1 <0>         0.1749
     43 H19         4.2865   -2.5981    1.4561 H         1 <0>         0.2288
     44 H20         4.7664   -1.0730    0.9400 H         1 <0>         0.2713
@<TRIPOS>BOND
     1    1    2 1
     2    1   25 1
     3    1   26 1
     4    1   27 1
     5    2    3 1
     6    2    4 1
     7    2    5 1
     8    3   28 1
     9    3   29 1
    10    3   30 1
    11    4   31 1
    12    4   32 1
    13    4   33 1
    14    5   10 ar
    15    5    6 ar
    16    6    7 ar
    17    6   34 1
    18    7    8 ar
    19    7   35 1
    20    8    9 ar
    21    8   36 1
    22    9   10 ar
    23    9   37 1
    24   10   11 1
    25   11   12 am
    26   11   38 1
    27   12   13 2
    28   12   14 1
    29   14   15 1
    30   14   39 1
    31   14   40 1
    32   15   16 1
    33   16   17 2
    34   16   18 1
    35   18   23 ar
    36   18   19 ar
    37   19   20 ar
    38   19   24 1
    39   20   21 ar
    40   21   22 ar
    41   21   41 1
    42   22   23 ar
    43   22   42 1
    44   24   43 1
    45   24   44 1
@<TRIPOS>MOLECULE
ZINC03567272
   41    42     0     0     0
SMALL
USER_CHARGES

@<TRIPOS>ATOM
      1 C1          3.3328    6.0805   -0.8320 C.3       1 <0>        -0.2077
      2 C2          3.2070    5.3993   -2.1962 C.3       1 <0>        -0.1264
      3 C3          3.6328    3.9584   -2.0794 C.ar      1 <0>        -0.0836
      4 C4          4.9294    3.5936   -2.3859 C.ar      1 <0>        -0.1221
      5 C5          5.3206    2.2717   -2.2798 C.ar      1 <0>        -0.1267
      6 C6          4.4159    1.3108   -1.8663 C.ar      1 <0>        -0.1209
      7 C7          3.1199    1.6700   -1.5529 C.ar      1 <0>        -0.0555
      8 C8          2.7222    2.9961   -1.6639 C.ar      1 <0>         0.0583
      9 N1          1.4082    3.3625   -1.3522 N.am      1 <0>        -0.3327
     10 C9          0.3741    2.7035   -1.9116 C.2       1 <0>         0.2920
     11 O1          0.5802    1.8513   -2.7497 O.2       1 <0>        -0.3129
     12 C10        -1.0384    3.0299   -1.5003 C.3       1 <0>        -0.0307
     13 O2         -1.9644    2.1952   -2.2448 O.3       1 <0>        -0.1993
     14 C11        -3.2774    2.3633   -1.9932 C.2       1 <0>         0.3870
     15 O3         -3.6387    3.1848   -1.1743 O.2       1 <0>        -0.3919
     16 C12        -4.2768    1.5494   -2.7126 C.ar      1 <0>        -0.1688
     17 C13        -5.6484    1.8019   -2.5416 C.ar      1 <0>         0.1825
     18 N2         -6.5387    1.0670   -3.1984 N.ar      1 <0>        -0.2064
     19 C14        -6.1330    0.0982   -3.9987 C.ar      1 <0>        -0.0217
     20 C15        -4.7783   -0.1547   -4.1625 C.ar      1 <0>        -0.1795
     21 N3         -3.8837    0.5696   -3.5221 N.ar      1 <0>        -0.0360
     22 N4         -6.0688    2.8133   -1.6983 N.pl3     1 <0>        -0.3748
     23 C16         2.1365    0.6232   -1.0965 C.3       1 <0>        -0.1722
     24 H1          2.6943    5.5702   -0.1108 H         1 <0>         0.0647
     25 H2          4.3689    6.0339   -0.4967 H         1 <0>         0.0822
     26 H3          3.0248    7.1227   -0.9165 H         1 <0>         0.0749
     27 H4          3.8455    5.9095   -2.9173 H         1 <0>         0.0927
     28 H5          2.1709    5.4459   -2.5314 H         1 <0>         0.0887
     29 H6          5.6382    4.3416   -2.7091 H         1 <0>         0.1316
     30 H7          6.3347    1.9889   -2.5208 H         1 <0>         0.1300
     31 H8          4.7245    0.2791   -1.7845 H         1 <0>         0.1344
     32 H9          1.2416    4.0907   -0.7335 H         1 <0>         0.2310
     33 H10        -1.1584    2.8432   -0.4331 H         1 <0>         0.1080
     34 H11        -1.2450    4.0791   -1.7111 H         1 <0>         0.1059
     35 H12        -6.8593   -0.5006   -4.5282 H         1 <0>         0.1703
     36 H13        -4.4558   -0.9494   -4.8189 H         1 <0>         0.1750
     37 H14        -5.4695    3.5447   -1.4818 H         1 <0>         0.2641
     38 H15        -6.9631    2.7917   -1.3232 H         1 <0>         0.2307
     39 H16         1.7224    0.1106   -1.9647 H         1 <0>         0.1183
     40 H17         2.6446   -0.0983   -0.4567 H         1 <0>         0.0744
     41 H18         1.3311    1.1003   -0.5379 H         1 <0>         0.0733
@<TRIPOS>BOND
     1    1    2 1
     2    1   24 1
     3    1   25 1
     4    1   26 1
     5    2    3 1
     6    2   27 1
     7    2   28 1
     8    3    8 ar
     9    3    4 ar
    10    4    5 ar
    11    4   29 1
    12    5    6 ar
    13    5   30 1
    14    6    7 ar
    15    6   31 1
    16    7    8 ar
    17    7   23 1
    18    8    9 1
    19    9   10 am
    20    9   32 1
    21   10   11 2
    22   10   12 1
    23   12   13 1
    24   12   33 1
    25   12   34 1
    26   13   14 1
    27   14   15 2
    28   14   16 1
    29   16   21 ar
    30   16   17 ar
    31   17   18 ar
    32   17   22 1
    33   18   19 ar
    34   19   20 ar
    35   19   35 1
    36   20   21 ar
    37   20   36 1
    38   22   37 1
    39   22   38 1
    40   23   39 1
    41   23   40 1
    42   23   41 1
@<TRIPOS>MOLECULE
ZINC03569041
   39    41     0     0     0
SMALL
USER_CHARGES

@<TRIPOS>ATOM
      1 C1         -0.1443    1.2837   -1.1187 C.ar      1 <0>        -0.1251
      2 C2          1.0392    1.9905   -1.1852 C.ar      1 <0>        -0.0972
      3 C3          1.1853    3.1767   -0.4850 C.ar      1 <0>        -0.0973
      4 C4          0.1415    3.6575    0.2848 C.ar      1 <0>        -0.0683
      5 C5         -1.0466    2.9523    0.3542 C.ar      1 <0>        -0.1469
      6 C6         -1.1959    1.7667   -0.3515 C.ar      1 <0>         0.0614
      7 N1         -2.4003    1.0575   -0.2855 N.am      1 <0>        -0.3278
      8 C7         -2.3938   -0.2888   -0.3476 C.2       1 <0>         0.2949
      9 O1         -1.3406   -0.8900   -0.3656 O.2       1 <0>        -0.3134
     10 C8         -3.6952   -1.0473   -0.3949 C.3       1 <0>        -0.0307
     11 O2         -3.4230   -2.4721   -0.4582 O.3       1 <0>        -0.1993
     12 C9         -4.4875   -3.2967   -0.5063 C.2       1 <0>         0.3873
     13 O3         -5.6123   -2.8378   -0.4956 O.2       1 <0>        -0.3914
     14 C10        -4.2871   -4.7577   -0.5720 C.ar      1 <0>        -0.1685
     15 C11        -5.3877   -5.6145   -0.7412 C.ar      1 <0>         0.1825
     16 N2         -5.1949   -6.9270   -0.8047 N.ar      1 <0>        -0.2061
     17 C12        -3.9749   -7.4208   -0.6982 C.ar      1 <0>        -0.0219
     18 C13        -2.8887   -6.5743   -0.5248 C.ar      1 <0>        -0.1791
     19 N3         -3.0640   -5.2701   -0.4657 N.ar      1 <0>        -0.0360
     20 N4         -6.6638   -5.0937   -0.8466 N.pl3     1 <0>        -0.3750
     21 C14         0.5488    4.9581    0.9439 C.3       1 <0>        -0.1193
     22 C15         1.7826    5.4425    0.1532 C.3       1 <0>        -0.1598
     23 C16         2.3643    4.1222   -0.3951 C.3       1 <0>        -0.1188
     24 H1         -0.2539    0.3590   -1.6660 H         1 <0>         0.1614
     25 H2          1.8554    1.6168   -1.7857 H         1 <0>         0.1338
     26 H3         -1.8616    3.3278    0.9553 H         1 <0>         0.1273
     27 H4         -3.2399    1.5348   -0.1950 H         1 <0>         0.2305
     28 H5         -4.2763   -0.8278    0.5008 H         1 <0>         0.1086
     29 H6         -4.2597   -0.7456   -1.2772 H         1 <0>         0.1076
     30 H7         -3.8215   -8.4887   -0.7458 H         1 <0>         0.1704
     31 H8         -1.8945   -6.9871   -0.4382 H         1 <0>         0.1751
     32 H9         -6.7910   -4.1764   -1.1349 H         1 <0>         0.2638
     33 H10        -7.4321   -5.6457   -0.6321 H         1 <0>         0.2308
     34 H11        -0.2576    5.6878    0.8708 H         1 <0>         0.0874
     35 H12         0.8117    4.7870    1.9877 H         1 <0>         0.0966
     36 H13         1.4859    6.1030   -0.6615 H         1 <0>         0.0899
     37 H14         2.4964    5.9358    0.8130 H         1 <0>         0.0880
     38 H15         3.1150    3.7267    0.2891 H         1 <0>         0.0960
     39 H16         2.7977    4.2812   -1.3825 H         1 <0>         0.0888
@<TRIPOS>BOND
     1    1    6 ar
     2    1    2 ar
     3    1   24 1
     4    2    3 ar
     5    2   25 1
     6    3   23 1
     7    3    4 ar
     8    4    5 ar
     9    4   21 1
    10    5    6 ar
    11    5   26 1
    12    6    7 1
    13    7    8 am
    14    7   27 1
    15    8    9 2
    16    8   10 1
    17   10   11 1
    18   10   28 1
    19   10   29 1
    20   11   12 1
    21   12   13 2
    22   12   14 1
    23   14   19 ar
    24   14   15 ar
    25   15   16 ar
    26   15   20 1
    27   16   17 ar
    28   17   18 ar
    29   17   30 1
    30   18   19 ar
    31   18   31 1
    32   20   32 1
    33   20   33 1
    34   21   22 1
    35   21   34 1
    36   21   35 1
    37   22   23 1
    38   22   36 1
    39   22   37 1
    40   23   38 1
    41   23   39 1
@<TRIPOS>MOLECULE
ZINC03569956
   43    45     0     0     0
SMALL
USER_CHARGES

@<TRIPOS>ATOM
      1 C1         -1.0482    9.8521    2.5428 C.3       1 <0>        -0.1727
      2 C2         -1.1249    8.3483    2.4803 C.ar      1 <0>        -0.0780
      3 C3         -1.2227    7.7132    1.2559 C.ar      1 <0>        -0.1211
      4 C4         -1.2933    6.3345    1.1925 C.ar      1 <0>        -0.1121
      5 C5         -1.2662    5.5845    2.3592 C.ar      1 <0>         0.0323
      6 C6         -1.1731    6.2252    3.5926 C.ar      1 <0>         0.0383
      7 C7         -1.0978    7.6076    3.6472 C.ar      1 <0>        -0.1377
      8 O1         -1.1518    5.4956    4.7398 O.3       1 <0>        -0.2955
      9 N1         -1.3383    4.1865    2.2975 N.am      1 <0>        -0.3227
     10 C8         -0.7616    3.5265    1.2736 C.2       1 <0>         0.3022
     11 O2         -0.2506    4.1455    0.3642 O.2       1 <0>        -0.3554
     12 C9         -0.7516    2.0196    1.2586 C.3       1 <0>        -0.1850
     13 C10        -0.0411    1.5268   -0.0036 C.3       1 <0>        -0.1691
     14 C11        -0.0310   -0.0030   -0.0188 C.3       1 <0>        -0.0076
     15 N2          0.6494   -0.4749   -1.2274 N.am      1 <0>        -0.3197
     16 C12         0.0353   -0.7266   -2.3975 C.2       1 <0>         0.3598
     17 O3         -1.1526   -0.6000   -2.6163 O.2       1 <0>        -0.3011
     18 C13         1.0488   -1.1799   -3.3734 C.ar      1 <0>        -0.1326
     19 C14         1.0063   -1.5686   -4.7027 C.ar      1 <0>        -0.0599
     20 C15         2.1736   -1.9532   -5.3438 C.ar      1 <0>        -0.1141
     21 C16         3.3784   -1.9515   -4.6662 C.ar      1 <0>        -0.1141
     22 C17         3.4361   -1.5652   -3.3363 C.ar      1 <0>        -0.0599
     23 C18         2.2773   -1.1782   -2.6825 C.ar      1 <0>        -0.1327
     24 C19         1.9696   -0.7191   -1.3115 C.2       1 <0>         0.3600
     25 O4          2.7741   -0.5848   -0.4117 O.2       1 <0>        -0.3013
     26 H1         -2.0546   10.2646    2.6137 H         1 <0>         0.0869
     27 H2         -0.4707   10.1504    3.4178 H         1 <0>         0.0809
     28 H3         -0.5638   10.2289    1.6420 H         1 <0>         0.0829
     29 H4         -1.2442    8.2960    0.3469 H         1 <0>         0.1364
     30 H5         -1.3700    5.8410    0.2349 H         1 <0>         0.1690
     31 H6         -1.0218    8.1068    4.6019 H         1 <0>         0.1415
     32 H7         -0.2644    5.2411    5.0276 H         1 <0>         0.2258
     33 H8         -1.8031    3.6937    2.9917 H         1 <0>         0.2407
     34 H9         -1.7768    1.6494    1.2664 H         1 <0>         0.1039
     35 H10        -0.2255    1.6510    2.1392 H         1 <0>         0.1039
     36 H11         0.9841    1.8970   -0.0114 H         1 <0>         0.1131
     37 H12        -0.5672    1.8955   -0.8841 H         1 <0>         0.1123
     38 H13         0.4952   -0.3717    0.8617 H         1 <0>         0.1086
     39 H14        -1.0562   -0.3732   -0.0110 H         1 <0>         0.1089
     40 H15         0.0678   -1.5722   -5.2370 H         1 <0>         0.1507
     41 H16         2.1414   -2.2566   -6.3798 H         1 <0>         0.1417
     42 H17         4.2810   -2.2536   -5.1765 H         1 <0>         0.1417
     43 H18         4.3802   -1.5655   -2.8119 H         1 <0>         0.1507
@<TRIPOS>BOND
     1    1    2 1
     2    1   26 1
     3    1   27 1
     4    1   28 1
     5    2    7 ar
     6    2    3 ar
     7    3    4 ar
     8    3   29 1
     9    4    5 ar
    10    4   30 1
    11    5    6 ar
    12    5    9 1
    13    6    7 ar
    14    6    8 1
    15    7   31 1
    16    8   32 1
    17    9   10 am
    18    9   33 1
    19   10   11 2
    20   10   12 1
    21   12   13 1
    22   12   34 1
    23   12   35 1
    24   13   14 1
    25   13   36 1
    26   13   37 1
    27   14   15 1
    28   14   38 1
    29   14   39 1
    30   15   24 am
    31   15   16 am
    32   16   17 2
    33   16   18 1
    34   18   23 ar
    35   18   19 ar
    36   19   20 ar
    37   19   40 1
    38   20   21 ar
    39   20   41 1
    40   21   22 ar
    41   21   42 1
    42   22   23 ar
    43   22   43 1
    44   23   24 1
    45   24   25 2
@<TRIPOS>MOLECULE
ZINC03569957
   40    42     0     0     0
SMALL
USER_CHARGES

@<TRIPOS>ATOM
      1 C1         -0.2843   -8.3763    2.5757 C.3       1 <0>        -0.1729
      2 C2         -0.1935   -6.8720    2.5834 C.ar      1 <0>        -0.0769
      3 C3          0.4810   -6.2168    1.5697 C.ar      1 <0>        -0.1212
      4 C4          0.5676   -4.8375    1.5716 C.ar      1 <0>        -0.1115
      5 C5         -0.0233   -4.1072    2.5924 C.ar      1 <0>         0.0308
      6 C6         -0.6981   -4.7682    3.6161 C.ar      1 <0>         0.0400
      7 C7         -0.7845   -6.1510    3.6042 C.ar      1 <0>        -0.1378
      8 O1         -1.2744   -4.0580    4.6222 O.3       1 <0>        -0.2955
      9 N1          0.0635   -2.7087    2.5968 N.am      1 <0>        -0.3192
     10 C8          0.0506   -2.0291    1.4330 C.2       1 <0>         0.3074
     11 O2          0.0455   -2.6303    0.3796 O.2       1 <0>        -0.3613
     12 C9          0.0426   -0.5221    1.4405 C.3       1 <0>        -0.2117
     13 C10         0.0285   -0.0050    0.0006 C.3       1 <0>         0.0094
     14 N2          0.0207    1.4600    0.0078 N.am      1 <0>        -0.3248
     15 C11        -1.0925    2.2152    0.0146 C.2       1 <0>         0.3577
     16 O3         -2.2328    1.7972    0.0161 O.2       1 <0>        -0.2993
     17 C12        -0.6956    3.6391    0.0229 C.ar      1 <0>        -0.1342
     18 C13        -1.3911    4.8375    0.0334 C.ar      1 <0>        -0.0599
     19 C14        -0.6948    6.0361    0.0334 C.ar      1 <0>        -0.1137
     20 C15         0.6875    6.0435    0.0230 C.ar      1 <0>        -0.1137
     21 C16         1.3964    4.8525    0.0123 C.ar      1 <0>        -0.0598
     22 C17         0.7138    3.6466    0.0122 C.ar      1 <0>        -0.1341
     23 C18         1.1258    2.2271    0.0028 C.2       1 <0>         0.3576
     24 O4          2.2704    1.8212   -0.0076 O.2       1 <0>        -0.2988
     25 H1          0.5642   -8.7943    3.1172 H         1 <0>         0.0872
     26 H2         -1.2115   -8.6868    3.0574 H         1 <0>         0.0812
     27 H3         -0.2714   -8.7358    1.5467 H         1 <0>         0.0832
     28 H4          0.9417   -6.7843    0.7746 H         1 <0>         0.1367
     29 H5          1.0953   -4.3283    0.7788 H         1 <0>         0.1687
     30 H6         -1.3103   -6.6659    4.3947 H         1 <0>         0.1419
     31 H7         -2.1915   -3.8045    4.4496 H         1 <0>         0.2266
     32 H8          0.1328   -2.2297    3.4374 H         1 <0>         0.2424
     33 H9          0.9347   -0.1565    1.9490 H         1 <0>         0.1150
     34 H10        -0.8452   -0.1661    1.9631 H         1 <0>         0.1149
     35 H11        -0.8636   -0.3706   -0.5080 H         1 <0>         0.1298
     36 H12         0.9163   -0.3610   -0.5221 H         1 <0>         0.1290
     37 H13        -2.4710    4.8378    0.0412 H         1 <0>         0.1510
     38 H14        -1.2360    6.9706    0.0412 H         1 <0>         0.1423
     39 H15         1.2187    6.9838    0.0227 H         1 <0>         0.1424
     40 H16         2.4764    4.8643    0.0046 H         1 <0>         0.1511
@<TRIPOS>BOND
     1    1    2 1
     2    1   25 1
     3    1   26 1
     4    1   27 1
     5    2    7 ar
     6    2    3 ar
     7    3    4 ar
     8    3   28 1
     9    4    5 ar
    10    4   29 1
    11    5    6 ar
    12    5    9 1
    13    6    7 ar
    14    6    8 1
    15    7   30 1
    16    8   31 1
    17    9   10 am
    18    9   32 1
    19   10   11 2
    20   10   12 1
    21   12   13 1
    22   12   33 1
    23   12   34 1
    24   13   14 1
    25   13   35 1
    26   13   36 1
    27   14   23 am
    28   14   15 am
    29   15   16 2
    30   15   17 1
    31   17   22 ar
    32   17   18 ar
    33   18   19 ar
    34   18   37 1
    35   19   20 ar
    36   19   38 1
    37   20   21 ar
    38   20   39 1
    39   21   22 ar
    40   21   40 1
    41   22   23 1
    42   23   24 2
@<TRIPOS>MOLECULE
ZINC03575225
   42    44     0     0     0
SMALL
USER_CHARGES

@<TRIPOS>ATOM
      1 C1         -0.7939    8.1002   -5.2217 C.3       1 <0>        -0.2120
      2 C2         -0.7723    7.1692   -4.0077 C.3       1 <0>        -0.0190
      3 O1         -1.2544    5.8789   -4.3883 O.3       1 <0>        -0.2072
      4 C3         -1.2999    4.9269   -3.4196 C.ar      1 <0>         0.1579
      5 C4         -1.7574    3.6519   -3.7194 C.ar      1 <0>        -0.1834
      6 C5         -1.8022    2.6858   -2.7330 C.ar      1 <0>         0.0066
      7 C6         -1.3917    2.9886   -1.4479 C.ar      1 <0>        -0.7984
      8 C7         -0.9407    4.2601   -1.1452 C.ar      1 <0>         0.0287
      9 C8         -0.8886    5.2282   -2.1294 C.ar      1 <0>        -0.2462
     10 S1         -1.4502    1.7541   -0.1920 S.o2      1 <0>         2.7660
     11 O2         -2.4274    0.8062   -0.5994 O.2       1 <0>        -0.9017
     12 O3         -1.5264    2.4410    1.0496 O.2       1 <0>        -0.8850
     13 N1          0.0074    0.9684   -0.2095 N.pl3     1 <0>        -0.7406
     14 N2          1.0972    1.6260    0.0003 N.2       1 <0>         0.0814
     15 C9          2.2435    0.9875    0.0907 C.2       1 <0>        -0.1039
     16 C10         2.4703   -0.4748    0.1111 C.ar      1 <0>        -0.1522
     17 C11         1.6347   -1.5811    0.0486 C.ar      1 <0>        -0.0945
     18 C12         2.1753   -2.8507    0.0934 C.ar      1 <0>        -0.1305
     19 C13         3.5472   -3.0222    0.2004 C.ar      1 <0>        -0.1097
     20 C14         4.3916   -1.9357    0.2548 C.ar      1 <0>        -0.0398
     21 C15         3.8667   -0.6388    0.2165 C.ar      1 <0>         0.0322
     22 N3          4.4569    0.5827    0.2676 N.2       1 <0>        -0.2392
     23 C16         3.5941    1.5645    0.2011 C.2       1 <0>         0.1954
     24 O4          3.8923    2.8860    0.2286 O.3       1 <0>        -0.2164
     25 C17         5.8795   -2.1431    0.3739 C.3       1 <0>        -0.1723
     26 H1         -0.1563    7.6906   -6.0051 H         1 <0>         0.0901
     27 H2         -1.8148    8.1889   -5.5934 H         1 <0>         0.0904
     28 H3         -0.4262    9.0844   -4.9314 H         1 <0>         0.0901
     29 H4         -1.4099    7.5787   -3.2243 H         1 <0>         0.0792
     30 H5          0.2485    7.0805   -3.6360 H         1 <0>         0.0789
     31 H6         -2.0778    3.4148   -4.7231 H         1 <0>         0.1513
     32 H7         -2.1580    1.6930   -2.9659 H         1 <0>         0.1512
     33 H8         -0.6251    4.4955   -0.1396 H         1 <0>         0.1580
     34 H9         -0.5320    6.2200   -1.8935 H         1 <0>         0.1439
     35 H10         0.0421    0.0144   -0.3816 H         1 <0>         0.2380
     36 H11         0.5660   -1.4494   -0.0351 H         1 <0>         0.1180
     37 H12         1.5273   -3.7134    0.0453 H         1 <0>         0.1361
     38 H13         3.9590   -4.0200    0.2346 H         1 <0>         0.1373
     39 H14         4.8377    3.0743    0.3053 H         1 <0>         0.2550
     40 H15         6.1558   -2.1961    1.4270 H         1 <0>         0.0901
     41 H16         6.1576   -3.0731   -0.1219 H         1 <0>         0.0770
     42 H17         6.4014   -1.3100   -0.0971 H         1 <0>         0.0994
@<TRIPOS>BOND
     1    1    2 1
     2    1   26 1
     3    1   27 1
     4    1   28 1
     5    2    3 1
     6    2   29 1
     7    2   30 1
     8    3    4 1
     9    4    9 ar
    10    4    5 ar
    11    5    6 ar
    12    5   31 1
    13    6    7 ar
    14    6   32 1
    15    7    8 ar
    16    7   10 1
    17    8    9 ar
    18    8   33 1
    19    9   34 1
    20   10   11 2
    21   10   12 2
    22   10   13 1
    23   13   14 1
    24   13   35 1
    25   14   15 2
    26   15   23 1
    27   15   16 1
    28   16   21 ar
    29   16   17 ar
    30   17   18 ar
    31   17   36 1
    32   18   19 ar
    33   18   37 1
    34   19   20 ar
    35   19   38 1
    36   20   21 ar
    37   20   25 1
    38   21   22 1
    39   22   23 2
    40   23   24 1
    41   24   39 1
    42   25   40 1
    43   25   41 1
    44   25   42 1
@<TRIPOS>MOLECULE
ZINC03576280
   40    41     0     0     0
SMALL
USER_CHARGES

@<TRIPOS>ATOM
      1 C1          3.2654   -2.8688    3.0400 C.3       1 <0>        -0.1743
      2 C2          3.3412   -1.9084    1.8812 C.ar      1 <0>        -0.1038
      3 C3          3.9043   -2.3119    0.6847 C.ar      1 <0>        -0.0698
      4 C4          3.9743   -1.4309   -0.3780 C.ar      1 <0>        -0.1490
      5 C5          3.4812   -0.1462   -0.2446 C.ar      1 <0>         0.0193
      6 C6          2.9175    0.2569    0.9513 C.ar      1 <0>        -0.7627
      7 C7          2.8518   -0.6228    2.0158 C.ar      1 <0>        -0.0240
      8 S1          2.2891    1.8942    1.1213 S.o2      1 <0>         2.7638
      9 O1          3.3016    2.7695    0.6440 O.2       1 <0>        -0.9045
     10 O2          1.7563    1.9903    2.4352 O.2       1 <0>        -0.8977
     11 N1          1.0095    2.0382    0.0801 N.pl3     1 <0>        -0.7574
     12 N2         -0.0834    1.1683    0.1887 N.pl3     1 <0>        -0.2687
     13 C8         -1.3705    1.6820    0.3505 C.2       1 <0>         0.0903
     14 C9         -1.5747    2.9990    0.2952 C.2       1 <0>        -0.3093
     15 C10        -2.5097    0.7653    0.5834 C.ar      1 <0>        -0.0457
     16 C11        -2.2818   -0.5965    0.7819 C.ar      1 <0>        -0.1114
     17 C12        -3.3444   -1.4464    1.0042 C.ar      1 <0>        -0.1493
     18 C13        -4.6411   -0.9500    1.0193 C.ar      1 <0>         0.0743
     19 C14        -4.8720    0.4041    0.8164 C.ar      1 <0>        -0.1495
     20 C15        -3.8136    1.2605    0.5991 C.ar      1 <0>        -0.0959
     21 O3         -5.6863   -1.7911    1.2335 O.3       1 <0>        -0.2907
     22 C16         3.5580    0.8145   -1.4031 C.3       1 <0>        -0.1938
     23 H1          4.1679   -2.7804    3.6448 H         1 <0>         0.0913
     24 H2          2.3940   -2.6329    3.6509 H         1 <0>         0.0871
     25 H3          3.1794   -3.8877    2.6625 H         1 <0>         0.0818
     26 H4          4.2898   -3.3154    0.5805 H         1 <0>         0.1350
     27 H5          4.4144   -1.7460   -1.3126 H         1 <0>         0.1373
     28 H6          2.4154   -0.3064    2.9517 H         1 <0>         0.1602
     29 H7          1.0166    2.7247   -0.6051 H         1 <0>         0.2491
     30 H8          0.0543    0.2090    0.1476 H         1 <0>         0.2517
     31 H9         -2.5710    3.3966    0.4204 H         1 <0>         0.1262
     32 H10        -0.7438    3.6677    0.1253 H         1 <0>         0.1195
     33 H11        -1.2738   -0.9840    0.7659 H         1 <0>         0.1273
     34 H12        -3.1684   -2.5001    1.1624 H         1 <0>         0.1414
     35 H13        -5.8819    0.7868    0.8283 H         1 <0>         0.1436
     36 H14        -3.9939    2.3137    0.4417 H         1 <0>         0.1441
     37 H15        -6.0534   -2.1759    0.4259 H         1 <0>         0.2281
     38 H16         4.5150    1.3357   -1.3802 H         1 <0>         0.1185
     39 H17         3.4669    0.2631   -2.3390 H         1 <0>         0.0898
     40 H18         2.7475    1.5395   -1.3282 H         1 <0>         0.0778
@<TRIPOS>BOND
     1    1    2 1
     2    1   23 1
     3    1   24 1
     4    1   25 1
     5    2    7 ar
     6    2    3 ar
     7    3    4 ar
     8    3   26 1
     9    4    5 ar
    10    4   27 1
    11    5    6 ar
    12    5   22 1
    13    6    7 ar
    14    6    8 1
    15    7   28 1
    16    8    9 2
    17    8   10 2
    18    8   11 1
    19   11   12 1
    20   11   29 1
    21   12   13 1
    22   12   30 1
    23   13   14 2
    24   13   15 1
    25   14   31 1
    26   14   32 1
    27   15   20 ar
    28   15   16 ar
    29   16   17 ar
    30   16   33 1
    31   17   18 ar
    32   17   34 1
    33   18   19 ar
    34   18   21 1
    35   19   20 ar
    36   19   35 1
    37   20   36 1
    38   21   37 1
    39   22   38 1
    40   22   39 1
    41   22   40 1
@<TRIPOS>MOLECULE
ZINC03577161
   40    41     0     0     0
SMALL
USER_CHARGES

@<TRIPOS>ATOM
      1 C1          4.1300    2.6002   -1.2503 C.3       1 <0>        -0.2099
      2 C2          3.7672    2.3725    0.2185 C.3       1 <0>        -0.1242
      3 C3          2.5366    1.5068    0.3036 C.2       1 <0>         0.0623
      4 C4          2.6572    0.2016    0.4580 C.2       1 <0>        -0.3626
      5 N1          1.2752    2.0826    0.2195 N.pl3     1 <0>        -0.2705
      6 N2          0.1311    1.2778    0.2985 N.am      1 <0>        -0.2636
      7 C5         -1.0926    1.8358    0.2114 C.2       1 <0>         0.3539
      8 O1         -1.2038    3.0383    0.0691 O.2       1 <0>        -0.3954
      9 C6         -2.2965    0.9882    0.2885 C.ar      1 <0>        -0.1597
     10 C7         -2.1737   -0.3942    0.4519 C.ar      1 <0>        -0.0843
     11 C8         -3.3024   -1.1806    0.5231 C.ar      1 <0>        -0.1575
     12 C9         -4.5617   -0.6083    0.4336 C.ar      1 <0>        -0.0707
     13 C10        -4.6997    0.7548    0.2722 C.ar      1 <0>        -0.1953
     14 C11        -3.5730    1.5653    0.2040 C.ar      1 <0>         0.1365
     15 N3         -3.7093    2.9384    0.0472 N.pl3     1 <0>        -0.7950
     16 S1         -4.9661    3.7341    0.7750 S.o2      1 <0>         2.7935
     17 O2         -4.7567    5.1206    0.5446 O.2       1 <0>        -0.8960
     18 O3         -6.1552    3.0666    0.3755 O.2       1 <0>        -0.9136
     19 C12        -4.8064    3.4823    2.5115 C.2       1 <0>        -0.9556
     20 C13        -4.1378    4.2287    3.4244 C.2       1 <0>        -0.0235
     21 C14        -4.1501    3.8363    4.7497 C.2       1 <0>        -0.2090
     22 C15        -4.8304    2.7166    5.0974 C.2       1 <0>        -0.2760
     23 S2         -5.4897    2.1824    3.5266 S.3       1 <0>         0.4404
     24 H1          3.3016    3.0957   -1.7565 H         1 <0>         0.0798
     25 H2          5.0201    3.2264   -1.3118 H         1 <0>         0.0776
     26 H3          4.3268    1.6409   -1.7289 H         1 <0>         0.0833
     27 H4          3.5704    3.3318    0.6972 H         1 <0>         0.0896
     28 H5          4.5956    1.8770    0.7248 H         1 <0>         0.1043
     29 H6          3.6379   -0.2461    0.5233 H         1 <0>         0.1281
     30 H7          1.7753   -0.4188    0.5189 H         1 <0>         0.1005
     31 H8          1.1865    3.0418    0.1060 H         1 <0>         0.2729
     32 H9          0.2198    0.3186    0.4120 H         1 <0>         0.2581
     33 H10        -1.1951   -0.8454    0.5226 H         1 <0>         0.1265
     34 H11        -3.2056   -2.2488    0.6498 H         1 <0>         0.1360
     35 H12        -5.4405   -1.2335    0.4910 H         1 <0>         0.1408
     36 H13        -5.6844    1.1929    0.2033 H         1 <0>         0.1917
     37 H14        -3.0683    3.4314   -0.4885 H         1 <0>         0.2862
     38 H15        -3.6038    5.1170    3.1208 H         1 <0>         0.1598
     39 H16        -3.6258    4.4133    5.4970 H         1 <0>         0.1498
     40 H17        -4.9468    2.2667    6.0723 H         1 <0>         0.1908
@<TRIPOS>BOND
     1    1    2 1
     2    1   24 1
     3    1   25 1
     4    1   26 1
     5    2    3 1
     6    2   27 1
     7    2   28 1
     8    3    4 2
     9    3    5 1
    10    4   29 1
    11    4   30 1
    12    5    6 1
    13    5   31 1
    14    6    7 am
    15    6   32 1
    16    7    8 2
    17    7    9 1
    18    9   14 ar
    19    9   10 ar
    20   10   11 ar
    21   10   33 1
    22   11   12 ar
    23   11   34 1
    24   12   13 ar
    25   12   35 1
    26   13   14 ar
    27   13   36 1
    28   14   15 1
    29   15   16 1
    30   15   37 1
    31   16   17 2
    32   16   18 2
    33   16   19 1
    34   19   23 1
    35   19   20 2
    36   20   21 1
    37   20   38 1
    38   21   22 2
    39   21   39 1
    40   22   23 1
    41   22   40 1
@<TRIPOS>MOLECULE
ZINC03579549
   42    44     0     0     0
SMALL
USER_CHARGES

@<TRIPOS>ATOM
      1 C1         -0.0055    1.0806    0.0130 C.3       1 <0>        -0.2047
      2 C2         -0.7282    1.5781    1.2664 C.3       1 <0>         0.0746
      3 C3         -2.1102    0.9631    1.3647 C.2       1 <0>         0.3019
      4 O1         -3.0240    1.0854    0.5772 O.2       1 <0>        -0.3227
      5 N1         -2.1122    0.2528    2.5100 N.am      1 <0>        -0.2552
      6 C4         -0.9359    0.3328    3.1424 C.2       1 <0>         0.4250
      7 O2         -0.6960   -0.2237    4.1960 O.2       1 <0>        -0.3365
      8 N2         -0.0483    1.0979    2.4818 N.am      1 <0>        -0.3959
      9 N3         -3.2102   -0.4795    2.9800 N.2       1 <0>        -0.0076
     10 C5         -4.3467   -0.4168    2.3568 C.2       1 <0>        -0.0801
     11 C6         -5.5306   -1.0971    2.9124 C.ar      1 <0>        -0.0722
     12 C7         -5.4300   -1.8149    4.1072 C.ar      1 <0>        -0.0709
     13 C8         -6.5408   -2.4436    4.6263 C.ar      1 <0>        -0.1637
     14 C9         -7.7562   -2.3754    3.9572 C.ar      1 <0>         0.0905
     15 C10        -7.8594   -1.6682    2.7661 C.ar      1 <0>        -0.1642
     16 C11        -6.7555   -1.0308    2.2430 C.ar      1 <0>        -0.0847
     17 O3         -8.8472   -3.0018    4.4695 O.3       1 <0>        -0.2921
     18 C12        -0.8128    3.0828    1.2656 C.ar      1 <0>        -0.1381
     19 C13        -1.9025    3.7124    0.6930 C.ar      1 <0>        -0.0775
     20 C14        -1.9852    5.0914    0.6960 C.ar      1 <0>        -0.2175
     21 C15        -0.9684    5.8448    1.2645 C.ar      1 <0>         0.1075
     22 C16         0.1267    5.2108    1.8333 C.ar      1 <0>        -0.1578
     23 C17         0.2021    3.8314    1.8324 C.ar      1 <0>        -0.0719
     24 O4         -1.0446    7.2017    1.2637 O.3       1 <0>        -0.2094
     25 C18        -2.2008    7.7861    0.6606 C.3       1 <0>        -0.0641
     26 H1          0.0126   -0.0093    0.0126 H         1 <0>         0.0898
     27 H2          1.0160    1.4609    0.0075 H         1 <0>         0.0922
     28 H3         -0.5302    1.4356   -0.8740 H         1 <0>         0.1041
     29 H4          0.8618    1.2954    2.7531 H         1 <0>         0.2792
     30 H5         -4.4252    0.1338    1.4310 H         1 <0>         0.1718
     31 H6         -4.4842   -1.8727    4.6254 H         1 <0>         0.1617
     32 H7         -6.4653   -2.9939    5.5525 H         1 <0>         0.1460
     33 H8         -8.8065   -1.6176    2.2494 H         1 <0>         0.1435
     34 H9         -6.8368   -0.4806    1.3172 H         1 <0>         0.1379
     35 H10        -8.9557   -3.9136    4.1662 H         1 <0>         0.2311
     36 H11        -2.6917    3.1256    0.2467 H         1 <0>         0.1599
     37 H12        -2.8388    5.5827    0.2529 H         1 <0>         0.1408
     38 H13         0.9197    5.7951    2.2761 H         1 <0>         0.1480
     39 H14         1.0543    3.3373    2.2751 H         1 <0>         0.1302
     40 H15        -2.2536    7.4892   -0.3868 H         1 <0>         0.0694
     41 H16        -3.0949    7.4428    1.1811 H         1 <0>         0.0707
     42 H17        -2.1359    8.8721    0.7277 H         1 <0>         0.1108
@<TRIPOS>BOND
     1    1    2 1
     2    1   26 1
     3    1   27 1
     4    1   28 1
     5    2    8 1
     6    2    3 1
     7    2   18 1
     8    3    4 2
     9    3    5 am
    10    5    6 am
    11    5    9 1
    12    6    7 2
    13    6    8 am
    14    8   29 1
    15    9   10 2
    16   10   11 1
    17   10   30 1
    18   11   16 ar
    19   11   12 ar
    20   12   13 ar
    21   12   31 1
    22   13   14 ar
    23   13   32 1
    24   14   15 ar
    25   14   17 1
    26   15   16 ar
    27   15   33 1
    28   16   34 1
    29   17   35 1
    30   18   23 ar
    31   18   19 ar
    32   19   20 ar
    33   19   36 1
    34   20   21 ar
    35   20   37 1
    36   21   22 ar
    37   21   24 1
    38   22   23 ar
    39   22   38 1
    40   23   39 1
    41   24   25 1
    42   25   40 1
    43   25   41 1
    44   25   42 1
@<TRIPOS>MOLECULE
ZINC03579551
   42    44     0     0     0
SMALL
USER_CHARGES

@<TRIPOS>ATOM
      1 C1         -2.0526    1.6042   -1.2350 C.3       1 <0>        -0.2046
      2 C2         -1.2040    1.8296    0.0180 C.3       1 <0>         0.0747
      3 C3         -0.6283    3.2319    0.0298 C.2       1 <0>         0.3019
      4 O1         -1.2441    4.2762    0.0484 O.2       1 <0>        -0.3228
      5 N1          0.7102    3.0764    0.0097 N.am      1 <0>        -0.2552
      6 C4          1.0567    1.7842   -0.0083 C.2       1 <0>         0.4250
      7 O2          2.2074    1.3935   -0.0282 O.2       1 <0>        -0.3365
      8 N2         -0.0109    0.9658   -0.0018 N.am      1 <0>        -0.3962
      9 N3          1.6258    4.1368    0.0071 N.2       1 <0>        -0.0074
     10 C5          1.2016    5.3601   -0.0810 C.2       1 <0>        -0.0804
     11 C6          2.1667    6.4684   -0.1963 C.ar      1 <0>        -0.0724
     12 C7          3.5390    6.2046   -0.2051 C.ar      1 <0>        -0.0708
     13 C8          4.4373    7.2433   -0.3183 C.ar      1 <0>        -0.1639
     14 C9          3.9809    8.5519   -0.4125 C.ar      1 <0>         0.0906
     15 C10         2.6179    8.8193   -0.3983 C.ar      1 <0>        -0.1643
     16 C11         1.7121    7.7864   -0.2912 C.ar      1 <0>        -0.0845
     17 O3          4.8702    9.5731   -0.5191 O.3       1 <0>        -0.2922
     18 C12        -2.0172    1.5822    1.2624 C.ar      1 <0>        -0.1384
     19 C13        -2.7372    2.6155    1.8331 C.ar      1 <0>        -0.0769
     20 C14        -3.4879    2.3899    2.9706 C.ar      1 <0>        -0.2180
     21 C15        -3.5096    1.1282    3.5470 C.ar      1 <0>         0.1075
     22 C16        -2.7818    0.0945    2.9757 C.ar      1 <0>        -0.1581
     23 C17        -2.0375    0.3237    1.8347 C.ar      1 <0>        -0.0717
     24 O4         -4.2422    0.9053    4.6697 O.3       1 <0>        -0.2095
     25 C18        -4.9666    2.0158    5.2028 C.3       1 <0>        -0.0641
     26 H1         -2.3817    0.5657   -1.2689 H         1 <0>         0.0925
     27 H2         -2.9225    2.2604   -1.2075 H         1 <0>         0.1039
     28 H3         -1.4581    1.8261   -2.1212 H         1 <0>         0.0900
     29 H4          0.0023   -0.0041   -0.0123 H         1 <0>         0.2792
     30 H5          0.1414    5.5661   -0.0698 H         1 <0>         0.1719
     31 H6          3.8948    5.1879   -0.1275 H         1 <0>         0.1617
     32 H7          5.4979    7.0400   -0.3301 H         1 <0>         0.1460
     33 H8          2.2675    9.8382   -0.4718 H         1 <0>         0.1435
     34 H9          0.6525    7.9952   -0.2810 H         1 <0>         0.1380
     35 H10         5.1509    9.9405    0.3302 H         1 <0>         0.2312
     36 H11        -2.7159    3.5988    1.3869 H         1 <0>         0.1601
     37 H12        -4.0534    3.1963    3.4137 H         1 <0>         0.1406
     38 H13        -2.7968   -0.8885    3.4227 H         1 <0>         0.1480
     39 H14        -1.4707   -0.4806    1.3895 H         1 <0>         0.1306
     40 H15        -5.6749    2.3788    4.4581 H         1 <0>         0.0695
     41 H16        -5.5071    1.7021    6.0959 H         1 <0>         0.1108
     42 H17        -4.2702    2.8136    5.4611 H         1 <0>         0.0705
@<TRIPOS>BOND
     1    1    2 1
     2    1   26 1
     3    1   27 1
     4    1   28 1
     5    2    8 1
     6    2    3 1
     7    2   18 1
     8    3    4 2
     9    3    5 am
    10    5    6 am
    11    5    9 1
    12    6    7 2
    13    6    8 am
    14    8   29 1
    15    9   10 2
    16   10   11 1
    17   10   30 1
    18   11   16 ar
    19   11   12 ar
    20   12   13 ar
    21   12   31 1
    22   13   14 ar
    23   13   32 1
    24   14   15 ar
    25   14   17 1
    26   15   16 ar
    27   15   33 1
    28   16   34 1
    29   17   35 1
    30   18   23 ar
    31   18   19 ar
    32   19   20 ar
    33   19   36 1
    34   20   21 ar
    35   20   37 1
    36   21   22 ar
    37   21   24 1
    38   22   23 ar
    39   22   38 1
    40   23   39 1
    41   24   25 1
    42   25   40 1
    43   25   41 1
    44   25   42 1
@<TRIPOS>MOLECULE
ZINC03579553
   42    44     0     0     0
SMALL
USER_CHARGES

@<TRIPOS>ATOM
      1 C1         -0.0055    1.0805    0.0130 C.3       1 <0>        -0.2046
      2 C2         -0.7282    1.5781    1.2664 C.3       1 <0>         0.0735
      3 C3         -2.1102    0.9631    1.3647 C.2       1 <0>         0.3009
      4 O1         -3.0240    1.0854    0.5772 O.2       1 <0>        -0.3239
      5 N1         -2.1122    0.2528    2.5100 N.am      1 <0>        -0.2580
      6 C4         -0.9359    0.3328    3.1424 C.2       1 <0>         0.4249
      7 O2         -0.6960   -0.2237    4.1960 O.2       1 <0>        -0.3355
      8 N2         -0.0483    1.0979    2.4817 N.am      1 <0>        -0.3969
      9 N3         -3.2102   -0.4795    2.9800 N.2       1 <0>         0.0154
     10 C5         -4.3468   -0.4168    2.3567 C.2       1 <0>        -0.0868
     11 C6         -5.5303   -1.0968    2.9122 C.ar      1 <0>        -0.0892
     12 C7         -6.7556   -1.0319    2.2446 C.ar      1 <0>        -0.0851
     13 C8         -7.8590   -1.6708    2.7695 C.ar      1 <0>        -0.1490
     14 C9         -7.7578   -2.3775    3.9560 C.ar      1 <0>        -0.0958
     15 C10        -6.5513   -2.4497    4.6258 C.ar      1 <0>        -0.1658
     16 C11        -5.4315   -1.8173    4.1103 C.ar      1 <0>         0.1161
     17 O3         -4.2443   -1.8920    4.7651 O.3       1 <0>        -0.2680
     18 C12        -0.8128    3.0827    1.2655 C.ar      1 <0>        -0.1372
     19 C13        -1.9025    3.7124    0.6930 C.ar      1 <0>        -0.0780
     20 C14        -1.9851    5.0914    0.6960 C.ar      1 <0>        -0.2181
     21 C15        -0.9683    5.8448    1.2644 C.ar      1 <0>         0.1067
     22 C16         0.1267    5.2107    1.8332 C.ar      1 <0>        -0.1582
     23 C17         0.2021    3.8314    1.8323 C.ar      1 <0>        -0.0723
     24 O4         -1.0446    7.2016    1.2637 O.3       1 <0>        -0.2097
     25 C18        -2.2008    7.7861    0.6606 C.3       1 <0>        -0.0639
     26 H1          0.0126   -0.0093    0.0126 H         1 <0>         0.0911
     27 H2          1.0160    1.4609    0.0074 H         1 <0>         0.0916
     28 H3         -0.5302    1.4355   -0.8740 H         1 <0>         0.1037
     29 H4          0.8618    1.2954    2.7531 H         1 <0>         0.2785
     30 H5         -4.4253    0.1339    1.4309 H         1 <0>         0.1714
     31 H6         -6.8385   -0.4823    1.3186 H         1 <0>         0.1375
     32 H7         -8.8060   -1.6202    2.2529 H         1 <0>         0.1347
     33 H8         -8.6269   -2.8754    4.3600 H         1 <0>         0.1339
     34 H9         -6.4803   -3.0031    5.5505 H         1 <0>         0.1450
     35 H10        -4.1056   -1.1849    5.4100 H         1 <0>         0.2418
     36 H11        -2.6917    3.1256    0.2467 H         1 <0>         0.1603
     37 H12        -2.8388    5.5826    0.2529 H         1 <0>         0.1403
     38 H13         0.9197    5.7951    2.2761 H         1 <0>         0.1477
     39 H14         1.0544    3.3373    2.2750 H         1 <0>         0.1305
     40 H15        -2.2535    7.4892   -0.3869 H         1 <0>         0.0696
     41 H16        -3.0948    7.4428    1.1810 H         1 <0>         0.0702
     42 H17        -2.1358    8.8721    0.7276 H         1 <0>         0.1106
@<TRIPOS>BOND
     1    1    2 1
     2    1   26 1
     3    1   27 1
     4    1   28 1
     5    2    8 1
     6    2    3 1
     7    2   18 1
     8    3    4 2
     9    3    5 am
    10    5    6 am
    11    5    9 1
    12    6    7 2
    13    6    8 am
    14    8   29 1
    15    9   10 2
    16   10   11 1
    17   10   30 1
    18   11   16 ar
    19   11   12 ar
    20   12   13 ar
    21   12   31 1
    22   13   14 ar
    23   13   32 1
    24   14   15 ar
    25   14   33 1
    26   15   16 ar
    27   15   34 1
    28   16   17 1
    29   17   35 1
    30   18   23 ar
    31   18   19 ar
    32   19   20 ar
    33   19   36 1
    34   20   21 ar
    35   20   37 1
    36   21   22 ar
    37   21   24 1
    38   22   23 ar
    39   22   38 1
    40   23   39 1
    41   24   25 1
    42   25   40 1
    43   25   41 1
    44   25   42 1
@<TRIPOS>MOLECULE
ZINC03579555
   42    44     0     0     0
SMALL
USER_CHARGES

@<TRIPOS>ATOM
      1 C1         -2.0526    1.6042   -1.2350 C.3       1 <0>        -0.2044
      2 C2         -1.2040    1.8296    0.0180 C.3       1 <0>         0.0738
      3 C3         -0.6283    3.2319    0.0299 C.2       1 <0>         0.3009
      4 O1         -1.2441    4.2762    0.0485 O.2       1 <0>        -0.3240
      5 N1          0.7102    3.0764    0.0097 N.am      1 <0>        -0.2581
      6 C4          1.0567    1.7842   -0.0082 C.2       1 <0>         0.4249
      7 O2          2.2074    1.3935   -0.0282 O.2       1 <0>        -0.3356
      8 N2         -0.0109    0.9658   -0.0018 N.am      1 <0>        -0.3971
      9 N3          1.6258    4.1368    0.0071 N.2       1 <0>         0.0157
     10 C5          1.2015    5.3602   -0.0810 C.2       1 <0>        -0.0872
     11 C6          2.1663    6.4681   -0.1962 C.ar      1 <0>        -0.0892
     12 C7          1.7140    7.7863   -0.2913 C.ar      1 <0>        -0.0851
     13 C8          2.6220    8.8184   -0.3989 C.ar      1 <0>        -0.1490
     14 C9          3.9811    8.5540   -0.4128 C.ar      1 <0>        -0.0958
     15 C10         4.4414    7.2544   -0.3190 C.ar      1 <0>        -0.1659
     16 C11         3.5431    6.2057   -0.2054 C.ar      1 <0>         0.1159
     17 O3          3.9945    4.9288   -0.1075 O.3       1 <0>        -0.2675
     18 C12        -2.0172    1.5822    1.2624 C.ar      1 <0>        -0.1377
     19 C13        -2.7372    2.6155    1.8331 C.ar      1 <0>        -0.0765
     20 C14        -3.4879    2.3899    2.9706 C.ar      1 <0>        -0.2179
     21 C15        -3.5096    1.1282    3.5471 C.ar      1 <0>         0.1072
     22 C16        -2.7818    0.0945    2.9757 C.ar      1 <0>        -0.1582
     23 C17        -2.0375    0.3238    1.8348 C.ar      1 <0>        -0.0716
     24 O4         -4.2422    0.9053    4.6698 O.3       1 <0>        -0.2097
     25 C18        -4.9665    2.0158    5.2029 C.3       1 <0>        -0.0640
     26 H1         -2.3818    0.5657   -1.2688 H         1 <0>         0.0921
     27 H2         -2.9226    2.2604   -1.2075 H         1 <0>         0.1036
     28 H3         -1.4581    1.8260   -2.1212 H         1 <0>         0.0885
     29 H4          0.0022   -0.0041   -0.0123 H         1 <0>         0.2786
     30 H5          0.1414    5.5662   -0.0698 H         1 <0>         0.1715
     31 H6          0.6548    7.9968   -0.2801 H         1 <0>         0.1376
     32 H7          2.2717    9.8373   -0.4723 H         1 <0>         0.1347
     33 H8          4.6856    9.3683   -0.4970 H         1 <0>         0.1339
     34 H9          5.5030    7.0562   -0.3302 H         1 <0>         0.1450
     35 H10         4.1052    4.4844   -0.9591 H         1 <0>         0.2412
     36 H11        -2.7159    3.5988    1.3869 H         1 <0>         0.1601
     37 H12        -4.0534    3.1963    3.4137 H         1 <0>         0.1405
     38 H13        -2.7967   -0.8885    3.4228 H         1 <0>         0.1477
     39 H14        -1.4707   -0.4806    1.3896 H         1 <0>         0.1303
     40 H15        -4.2701    2.8136    5.4612 H         1 <0>         0.0709
     41 H16        -5.6749    2.3789    4.4582 H         1 <0>         0.0691
     42 H17        -5.5070    1.7021    6.0959 H         1 <0>         0.1104
@<TRIPOS>BOND
     1    1    2 1
     2    1   26 1
     3    1   27 1
     4    1   28 1
     5    2    8 1
     6    2    3 1
     7    2   18 1
     8    3    4 2
     9    3    5 am
    10    5    6 am
    11    5    9 1
    12    6    7 2
    13    6    8 am
    14    8   29 1
    15    9   10 2
    16   10   11 1
    17   10   30 1
    18   11   16 ar
    19   11   12 ar
    20   12   13 ar
    21   12   31 1
    22   13   14 ar
    23   13   32 1
    24   14   15 ar
    25   14   33 1
    26   15   16 ar
    27   15   34 1
    28   16   17 1
    29   17   35 1
    30   18   23 ar
    31   18   19 ar
    32   19   20 ar
    33   19   36 1
    34   20   21 ar
    35   20   37 1
    36   21   22 ar
    37   21   24 1
    38   22   23 ar
    39   22   38 1
    40   23   39 1
    41   24   25 1
    42   25   40 1
    43   25   41 1
    44   25   42 1
@<TRIPOS>MOLECULE
ZINC03579578
   46    48     0     0     0
SMALL
USER_CHARGES

@<TRIPOS>ATOM
      1 C1         -0.0100    1.0950    0.0049 C.3       1 <0>        -0.2056
      2 C2         -0.7279    1.5795    1.2662 C.3       1 <0>         0.0748
      3 C3         -0.0010    1.1054    2.5090 C.2       1 <0>         0.3021
      4 O1          0.1948   -0.0416    2.8502 O.2       1 <0>        -0.3238
      5 N1          0.3816    2.2238    3.1563 N.am      1 <0>        -0.2554
      6 C4          0.0015    3.3272    2.5020 C.2       1 <0>         0.4249
      7 O2          0.2324    4.4558    2.8895 O.2       1 <0>        -0.3354
      8 N2         -0.6645    3.0478    1.3670 N.am      1 <0>        -0.3957
      9 N3          1.0906    2.2303    4.3646 N.2       1 <0>        -0.0024
     10 C5          1.3276    1.1147    4.9838 C.2       1 <0>        -0.0824
     11 C6          1.9745    1.1300    6.3084 C.ar      1 <0>        -0.0337
     12 C7          2.3332    2.3446    6.8987 C.ar      1 <0>        -0.1084
     13 C8          2.9382    2.3566    8.1376 C.ar      1 <0>        -0.1305
     14 C9          3.1927    1.1647    8.8007 C.ar      1 <0>         0.0627
     15 C10         2.8374   -0.0501    8.2183 C.ar      1 <0>         0.0633
     16 C11         2.2254   -0.0699    6.9792 C.ar      1 <0>        -0.1838
     17 O3          3.0881   -1.2163    8.8715 O.3       1 <0>        -0.1990
     18 C12         2.6973   -2.4243    8.2155 C.3       1 <0>        -0.0661
     19 O4          3.7898    1.1823   10.0216 O.3       1 <0>        -0.2765
     20 C13        -2.1584    1.1055    1.2754 C.ar      1 <0>        -0.1381
     21 C14        -2.4806   -0.1049    1.8608 C.ar      1 <0>        -0.0778
     22 C15        -3.7920   -0.5390    1.8755 C.ar      1 <0>        -0.2180
     23 C16        -4.7844    0.2356    1.2926 C.ar      1 <0>         0.1076
     24 C17        -4.4577    1.4471    0.7008 C.ar      1 <0>        -0.1577
     25 C18        -3.1456    1.8792    0.6933 C.ar      1 <0>        -0.0717
     26 O5         -6.0744   -0.1918    1.3008 O.3       1 <0>        -0.2093
     27 C19        -6.3374   -1.4488    1.9277 C.3       1 <0>        -0.0640
     28 H1          0.0113    0.0053   -0.0050 H         1 <0>         0.1042
     29 H2          1.0102    1.4785   -0.0024 H         1 <0>         0.0908
     30 H3         -0.5403    1.4561   -0.8763 H         1 <0>         0.0928
     31 H4         -1.0311    3.6883    0.7375 H         1 <0>         0.2794
     32 H5          1.0510    0.1752    4.5288 H         1 <0>         0.1711
     33 H6          2.1369    3.2738    6.3845 H         1 <0>         0.1624
     34 H7          3.2150    3.2960    8.5928 H         1 <0>         0.1504
     35 H8          1.9457   -1.0107    6.5285 H         1 <0>         0.1433
     36 H9          2.9537   -3.2778    8.8431 H         1 <0>         0.1114
     37 H10         1.6213   -2.4115    8.0415 H         1 <0>         0.0660
     38 H11         3.2187   -2.5049    7.2617 H         1 <0>         0.0703
     39 H12         3.1698    1.2334   10.7619 H         1 <0>         0.2281
     40 H13        -1.7070   -0.7096    2.3105 H         1 <0>         0.1598
     41 H14        -4.0439   -1.4823    2.3371 H         1 <0>         0.1404
     42 H15        -5.2284    2.0518    0.2461 H         1 <0>         0.1482
     43 H16        -2.8907    2.8222    0.2328 H         1 <0>         0.1306
     44 H17        -7.4027   -1.6705    1.8644 H         1 <0>         0.1110
     45 H18        -5.7725   -2.2321    1.4223 H         1 <0>         0.0695
     46 H19        -6.0375   -1.4024    2.9747 H         1 <0>         0.0703
@<TRIPOS>BOND
     1    1    2 1
     2    1   28 1
     3    1   29 1
     4    1   30 1
     5    2    8 1
     6    2    3 1
     7    2   20 1
     8    3    4 2
     9    3    5 am
    10    5    6 am
    11    5    9 1
    12    6    7 2
    13    6    8 am
    14    8   31 1
    15    9   10 2
    16   10   11 1
    17   10   32 1
    18   11   16 ar
    19   11   12 ar
    20   12   13 ar
    21   12   33 1
    22   13   14 ar
    23   13   34 1
    24   14   15 ar
    25   14   19 1
    26   15   16 ar
    27   15   17 1
    28   16   35 1
    29   17   18 1
    30   18   36 1
    31   18   37 1
    32   18   38 1
    33   19   39 1
    34   20   25 ar
    35   20   21 ar
    36   21   22 ar
    37   21   40 1
    38   22   23 ar
    39   22   41 1
    40   23   24 ar
    41   23   26 1
    42   24   25 ar
    43   24   42 1
    44   25   43 1
    45   26   27 1
    46   27   44 1
    47   27   45 1
    48   27   46 1
@<TRIPOS>MOLECULE
ZINC03579580
   46    48     0     0     0
SMALL
USER_CHARGES

@<TRIPOS>ATOM
      1 C1         -2.0699    1.8614    1.2753 C.3       1 <0>        -0.2055
      2 C2         -1.2347    2.1078    0.0172 C.3       1 <0>         0.0749
      3 C3         -0.0145    1.2086    0.0027 C.2       1 <0>         0.3020
      4 O1          0.0018   -0.0037   -0.0124 O.2       1 <0>        -0.3239
      5 N1          1.0486    2.0370    0.0043 N.am      1 <0>        -0.2554
      6 C4          0.6735    3.3211    0.0225 C.2       1 <0>         0.4248
      7 O2          1.4538    4.2529    0.0274 O.2       1 <0>        -0.3354
      8 N2         -0.6639    3.4657    0.0347 N.am      1 <0>        -0.3956
      9 N3          2.3817    1.6066   -0.0120 N.2       1 <0>        -0.0021
     10 C5          2.6563    0.3414    0.0765 C.2       1 <0>        -0.0828
     11 C6          4.0584   -0.1037    0.1718 C.ar      1 <0>        -0.0337
     12 C7          5.0931    0.8353    0.1669 C.ar      1 <0>        -0.1085
     13 C8          6.4038    0.4169    0.2566 C.ar      1 <0>        -0.1305
     14 C9          6.6989   -0.9355    0.3518 C.ar      1 <0>         0.0627
     15 C10         5.6723   -1.8774    0.3573 C.ar      1 <0>         0.0633
     16 C11         4.3556   -1.4653    0.2730 C.ar      1 <0>        -0.1838
     17 O3          5.9654   -3.2021    0.4507 O.3       1 <0>        -0.1990
     18 C12         4.8635   -4.1120    0.4506 C.3       1 <0>        -0.0661
     19 O4          7.9927   -1.3424    0.4405 O.3       1 <0>        -0.2765
     20 C13        -2.0650    1.8948   -1.2222 C.ar      1 <0>        -0.1380
     21 C14        -2.0747    0.6591   -1.8425 C.ar      1 <0>        -0.0779
     22 C15        -2.8395    0.4598   -2.9756 C.ar      1 <0>        -0.2175
     23 C16        -3.5888    1.5040   -3.4978 C.ar      1 <0>         0.1079
     24 C17        -3.5729    2.7444   -2.8768 C.ar      1 <0>        -0.1578
     25 C18        -2.8113    2.9370   -1.7405 C.ar      1 <0>        -0.0718
     26 O5         -4.3369    1.3122   -4.6161 O.3       1 <0>        -0.2093
     27 C19        -4.3053    0.0093   -5.2021 C.3       1 <0>        -0.0641
     28 H1         -1.4628    2.0586    2.1588 H         1 <0>         0.0899
     29 H2         -2.9346    2.5251    1.2730 H         1 <0>         0.0927
     30 H3         -2.4074    0.8251    1.2902 H         1 <0>         0.1042
     31 H4         -1.1565    4.3013    0.0480 H         1 <0>         0.2794
     32 H5          1.8575   -0.3855    0.0804 H         1 <0>         0.1710
     33 H6          4.8663    1.8885    0.0926 H         1 <0>         0.1624
     34 H7          7.2027    1.1436    0.2531 H         1 <0>         0.1504
     35 H8          3.5587   -2.1941    0.2816 H         1 <0>         0.1434
     36 H9          4.2134   -3.8954    1.2982 H         1 <0>         0.0663
     37 H10         4.3010   -4.0012   -0.4765 H         1 <0>         0.0700
     38 H11         5.2358   -5.1334    0.5298 H         1 <0>         0.1114
     39 H12         8.3233   -1.4078    1.3469 H         1 <0>         0.2281
     40 H13        -1.4872   -0.1520   -1.4385 H         1 <0>         0.1602
     41 H14        -2.8499   -0.5068   -3.4574 H         1 <0>         0.1407
     42 H15        -4.1552    3.5590   -3.2816 H         1 <0>         0.1481
     43 H16        -2.7986    3.9025   -1.2567 H         1 <0>         0.1301
     44 H17        -3.2825   -0.2357   -5.4884 H         1 <0>         0.0708
     45 H18        -4.6657   -0.7230   -4.4796 H         1 <0>         0.0694
     46 H19        -4.9437   -0.0074   -6.0855 H         1 <0>         0.1110
@<TRIPOS>BOND
     1    1    2 1
     2    1   28 1
     3    1   29 1
     4    1   30 1
     5    2    8 1
     6    2    3 1
     7    2   20 1
     8    3    4 2
     9    3    5 am
    10    5    6 am
    11    5    9 1
    12    6    7 2
    13    6    8 am
    14    8   31 1
    15    9   10 2
    16   10   11 1
    17   10   32 1
    18   11   16 ar
    19   11   12 ar
    20   12   13 ar
    21   12   33 1
    22   13   14 ar
    23   13   34 1
    24   14   15 ar
    25   14   19 1
    26   15   16 ar
    27   15   17 1
    28   16   35 1
    29   17   18 1
    30   18   36 1
    31   18   37 1
    32   18   38 1
    33   19   39 1
    34   20   25 ar
    35   20   21 ar
    36   21   22 ar
    37   21   40 1
    38   22   23 ar
    39   22   41 1
    40   23   24 ar
    41   23   26 1
    42   24   25 ar
    43   24   42 1
    44   25   43 1
    45   26   27 1
    46   27   44 1
    47   27   45 1
    48   27   46 1
@<TRIPOS>MOLECULE
ZINC03579607
   43    45     0     0     0
SMALL
USER_CHARGES

@<TRIPOS>ATOM
      1 C1         -0.0055    1.0805    0.0130 C.3       1 <0>        -0.2046
      2 C2         -0.7282    1.5781    1.2664 C.3       1 <0>         0.0737
      3 C3         -2.1102    0.9631    1.3647 C.2       1 <0>         0.3010
      4 O1         -3.0240    1.0854    0.5771 O.2       1 <0>        -0.3239
      5 N1         -2.1122    0.2528    2.5100 N.am      1 <0>        -0.2579
      6 C4         -0.9359    0.3328    3.1424 C.2       1 <0>         0.4248
      7 O2         -0.6960   -0.2237    4.1960 O.2       1 <0>        -0.3354
      8 N2         -0.0483    1.0979    2.4817 N.am      1 <0>        -0.3967
      9 N3         -3.2102   -0.4795    2.9800 N.2       1 <0>         0.0148
     10 C5         -4.3472   -0.4167    2.3565 C.2       1 <0>        -0.0862
     11 C6         -5.5300   -1.0964    2.9116 C.ar      1 <0>        -0.1002
     12 C7         -6.7567   -1.0258    2.2457 C.ar      1 <0>        -0.0722
     13 C8         -7.8592   -1.6672    2.7655 C.ar      1 <0>        -0.1757
     14 C9         -7.7591   -2.3763    3.9572 C.ar      1 <0>         0.1042
     15 C10        -6.5475   -2.4476    4.6288 C.ar      1 <0>        -0.1942
     16 C11        -5.4312   -1.8122    4.1136 C.ar      1 <0>         0.1296
     17 O3         -4.2443   -1.8818    4.7694 O.3       1 <0>        -0.2646
     18 O4         -8.8523   -3.0013    4.4661 O.3       1 <0>        -0.2893
     19 C12        -0.8128    3.0827    1.2655 C.ar      1 <0>        -0.1373
     20 C13        -1.9025    3.7124    0.6930 C.ar      1 <0>        -0.0781
     21 C14        -1.9851    5.0914    0.6960 C.ar      1 <0>        -0.2182
     22 C15        -0.9683    5.8448    1.2644 C.ar      1 <0>         0.1068
     23 C16         0.1267    5.2107    1.8332 C.ar      1 <0>        -0.1581
     24 C17         0.2021    3.8313    1.8323 C.ar      1 <0>        -0.0723
     25 O5         -1.0446    7.2016    1.2637 O.3       1 <0>        -0.2095
     26 C18        -2.2007    7.7861    0.6606 C.3       1 <0>        -0.0639
     27 H1          0.0126   -0.0093    0.0126 H         1 <0>         0.0913
     28 H2          1.0160    1.4609    0.0074 H         1 <0>         0.0918
     29 H3         -0.5302    1.4355   -0.8740 H         1 <0>         0.1038
     30 H4          0.8618    1.2954    2.7531 H         1 <0>         0.2788
     31 H5         -4.4257    0.1339    1.4307 H         1 <0>         0.1718
     32 H6         -6.8391   -0.4722    1.3221 H         1 <0>         0.1413
     33 H7         -8.8056   -1.6158    2.2478 H         1 <0>         0.1451
     34 H8         -6.4751   -2.9997    5.5542 H         1 <0>         0.1555
     35 H9         -4.1073   -1.1717    5.4112 H         1 <0>         0.2428
     36 H10        -9.3762   -2.4519    5.0651 H         1 <0>         0.2318
     37 H11        -2.6917    3.1256    0.2467 H         1 <0>         0.1601
     38 H12        -2.8388    5.5826    0.2529 H         1 <0>         0.1403
     39 H13         0.9198    5.7950    2.2761 H         1 <0>         0.1479
     40 H14         1.0544    3.3373    2.2750 H         1 <0>         0.1306
     41 H15        -2.2535    7.4892   -0.3869 H         1 <0>         0.0697
     42 H16        -3.0948    7.4428    1.1810 H         1 <0>         0.0700
     43 H17        -2.1358    8.8721    0.7276 H         1 <0>         0.1108
@<TRIPOS>BOND
     1    1    2 1
     2    1   27 1
     3    1   28 1
     4    1   29 1
     5    2    8 1
     6    2    3 1
     7    2   19 1
     8    3    4 2
     9    3    5 am
    10    5    6 am
    11    5    9 1
    12    6    7 2
    13    6    8 am
    14    8   30 1
    15    9   10 2
    16   10   11 1
    17   10   31 1
    18   11   16 ar
    19   11   12 ar
    20   12   13 ar
    21   12   32 1
    22   13   14 ar
    23   13   33 1
    24   14   15 ar
    25   14   18 1
    26   15   16 ar
    27   15   34 1
    28   16   17 1
    29   17   35 1
    30   18   36 1
    31   19   24 ar
    32   19   20 ar
    33   20   21 ar
    34   20   37 1
    35   21   22 ar
    36   21   38 1
    37   22   23 ar
    38   22   25 1
    39   23   24 ar
    40   23   39 1
    41   24   40 1
    42   25   26 1
    43   26   41 1
    44   26   42 1
    45   26   43 1
@<TRIPOS>MOLECULE
ZINC03579609
   43    45     0     0     0
SMALL
USER_CHARGES

@<TRIPOS>ATOM
      1 C1         -2.0526    1.6042   -1.2349 C.3       1 <0>        -0.2045
      2 C2         -1.2040    1.8296    0.0180 C.3       1 <0>         0.0741
      3 C3         -0.6283    3.2319    0.0299 C.2       1 <0>         0.3009
      4 O1         -1.2441    4.2763    0.0485 O.2       1 <0>        -0.3240
      5 N1          0.7102    3.0764    0.0097 N.am      1 <0>        -0.2580
      6 C4          1.0567    1.7842   -0.0082 C.2       1 <0>         0.4248
      7 O2          2.2075    1.3935   -0.0282 O.2       1 <0>        -0.3355
      8 N2         -0.0109    0.9658   -0.0017 N.am      1 <0>        -0.3969
      9 N3          1.6258    4.1368    0.0071 N.2       1 <0>         0.0151
     10 C5          1.2014    5.3606   -0.0810 C.2       1 <0>        -0.0866
     11 C6          2.1655    6.4679   -0.1962 C.ar      1 <0>        -0.1001
     12 C7          1.7116    7.7858   -0.2970 C.ar      1 <0>        -0.0723
     13 C8          2.6168    8.8189   -0.4002 C.ar      1 <0>        -0.1756
     14 C9          3.9816    8.5547   -0.4146 C.ar      1 <0>         0.1041
     15 C10         4.4422    7.2496   -0.3200 C.ar      1 <0>        -0.1941
     16 C11         3.5427    6.2035   -0.2110 C.ar      1 <0>         0.1293
     17 O3          3.9921    4.9256   -0.1182 O.3       1 <0>        -0.2641
     18 O4          4.8676    9.5785   -0.5224 O.3       1 <0>        -0.2893
     19 C12        -2.0172    1.5822    1.2624 C.ar      1 <0>        -0.1381
     20 C13        -2.7372    2.6155    1.8331 C.ar      1 <0>        -0.0765
     21 C14        -3.4879    2.3899    2.9706 C.ar      1 <0>        -0.2177
     22 C15        -3.5096    1.1282    3.5471 C.ar      1 <0>         0.1075
     23 C16        -2.7818    0.0945    2.9758 C.ar      1 <0>        -0.1580
     24 C17        -2.0375    0.3238    1.8348 C.ar      1 <0>        -0.0716
     25 O5         -4.2422    0.9054    4.6698 O.3       1 <0>        -0.2095
     26 C18        -4.9665    2.0159    5.2029 C.3       1 <0>        -0.0640
     27 H1         -2.3818    0.5657   -1.2688 H         1 <0>         0.0924
     28 H2         -2.9226    2.2604   -1.2075 H         1 <0>         0.1037
     29 H3         -1.4581    1.8260   -2.1212 H         1 <0>         0.0882
     30 H4          0.0022   -0.0041   -0.0123 H         1 <0>         0.2788
     31 H5          0.1413    5.5667   -0.0699 H         1 <0>         0.1719
     32 H6          0.6520    7.9945   -0.2903 H         1 <0>         0.1414
     33 H7          2.2649    9.8373   -0.4746 H         1 <0>         0.1451
     34 H8          5.5035    7.0498   -0.3317 H         1 <0>         0.1555
     35 H9          4.0990    4.4833   -0.9715 H         1 <0>         0.2423
     36 H10         5.1005    9.8028   -1.4337 H         1 <0>         0.2318
     37 H11        -2.7159    3.5988    1.3869 H         1 <0>         0.1600
     38 H12        -4.0534    3.1964    3.4137 H         1 <0>         0.1406
     39 H13        -2.7967   -0.8885    3.4228 H         1 <0>         0.1478
     40 H14        -1.4707   -0.4806    1.3896 H         1 <0>         0.1303
     41 H15        -5.6749    2.3789    4.4582 H         1 <0>         0.0691
     42 H16        -5.5070    1.7021    6.0959 H         1 <0>         0.1106
     43 H17        -4.2701    2.8136    5.4612 H         1 <0>         0.0710
@<TRIPOS>BOND
     1    1    2 1
     2    1   27 1
     3    1   28 1
     4    1   29 1
     5    2    8 1
     6    2    3 1
     7    2   19 1
     8    3    4 2
     9    3    5 am
    10    5    6 am
    11    5    9 1
    12    6    7 2
    13    6    8 am
    14    8   30 1
    15    9   10 2
    16   10   11 1
    17   10   31 1
    18   11   16 ar
    19   11   12 ar
    20   12   13 ar
    21   12   32 1
    22   13   14 ar
    23   13   33 1
    24   14   15 ar
    25   14   18 1
    26   15   16 ar
    27   15   34 1
    28   16   17 1
    29   17   35 1
    30   18   36 1
    31   19   24 ar
    32   19   20 ar
    33   20   21 ar
    34   20   37 1
    35   21   22 ar
    36   21   38 1
    37   22   23 ar
    38   22   25 1
    39   23   24 ar
    40   23   39 1
    41   24   40 1
    42   25   26 1
    43   26   41 1
    44   26   42 1
    45   26   43 1
@<TRIPOS>MOLECULE
ZINC03579647
   46    48     0     0     0
SMALL
USER_CHARGES

@<TRIPOS>ATOM
      1 C1         -0.0055    1.0805    0.0130 C.3       1 <0>        -0.2046
      2 C2         -0.7282    1.5781    1.2664 C.3       1 <0>         0.0736
      3 C3         -2.1102    0.9631    1.3647 C.2       1 <0>         0.3009
      4 O1         -3.0240    1.0854    0.5772 O.2       1 <0>        -0.3238
      5 N1         -2.1122    0.2528    2.5100 N.am      1 <0>        -0.2582
      6 C4         -0.9359    0.3328    3.1424 C.2       1 <0>         0.4244
      7 O2         -0.6960   -0.2237    4.1960 O.2       1 <0>        -0.3332
      8 N2         -0.0483    1.0979    2.4817 N.am      1 <0>        -0.3970
      9 N3         -3.2102   -0.4795    2.9800 N.2       1 <0>         0.0217
     10 C5         -4.3468   -0.4168    2.3567 C.2       1 <0>        -0.0886
     11 C6         -5.5304   -1.0969    2.9122 C.ar      1 <0>        -0.0542
     12 C7         -6.7576   -1.0267    2.2467 C.ar      1 <0>        -0.1259
     13 C8         -7.8610   -1.6691    2.7665 C.ar      1 <0>        -0.1090
     14 C9         -7.7639   -2.3755    3.9534 C.ar      1 <0>        -0.1953
     15 C10        -6.5552   -2.4493    4.6269 C.ar      1 <0>         0.0621
     16 C11        -5.4324   -1.8115    4.1120 C.ar      1 <0>         0.0868
     17 O3         -4.2457   -1.8811    4.7703 O.3       1 <0>        -0.2523
     18 O4         -6.4674   -3.1454    5.7920 O.3       1 <0>        -0.1958
     19 C12        -7.6604   -3.7757    6.2626 C.3       1 <0>        -0.0652
     20 C13        -0.8128    3.0827    1.2655 C.ar      1 <0>        -0.1371
     21 C14        -1.9025    3.7124    0.6930 C.ar      1 <0>        -0.0780
     22 C15        -1.9851    5.0914    0.6960 C.ar      1 <0>        -0.2181
     23 C16        -0.9683    5.8448    1.2644 C.ar      1 <0>         0.1066
     24 C17         0.1267    5.2107    1.8332 C.ar      1 <0>        -0.1581
     25 C18         0.2021    3.8314    1.8323 C.ar      1 <0>        -0.0722
     26 O5         -1.0446    7.2016    1.2637 O.3       1 <0>        -0.2097
     27 C19        -2.2008    7.7861    0.6606 C.3       1 <0>        -0.0639
     28 H1          0.0126   -0.0093    0.0126 H         1 <0>         0.0912
     29 H2          1.0160    1.4609    0.0074 H         1 <0>         0.0915
     30 H3         -0.5302    1.4355   -0.8740 H         1 <0>         0.1035
     31 H4          0.8618    1.2954    2.7531 H         1 <0>         0.2786
     32 H5         -4.4253    0.1339    1.4310 H         1 <0>         0.1730
     33 H6         -6.8403   -0.4728    1.3232 H         1 <0>         0.1384
     34 H7         -8.8069   -1.6170    2.2480 H         1 <0>         0.1350
     35 H8         -8.6346   -2.8717    4.3561 H         1 <0>         0.1391
     36 H9         -4.1101   -1.1712    5.4127 H         1 <0>         0.2387
     37 H10        -7.4521   -4.2953    7.1979 H         1 <0>         0.1120
     38 H11        -8.4286   -3.0207    6.4297 H         1 <0>         0.0651
     39 H12        -8.0104   -4.4919    5.5192 H         1 <0>         0.0689
     40 H13        -2.6917    3.1256    0.2467 H         1 <0>         0.1602
     41 H14        -2.8388    5.5826    0.2529 H         1 <0>         0.1403
     42 H15         0.9197    5.7951    2.2761 H         1 <0>         0.1477
     43 H16         1.0544    3.3373    2.2750 H         1 <0>         0.1306
     44 H17        -2.2535    7.4892   -0.3869 H         1 <0>         0.0695
     45 H18        -3.0948    7.4428    1.1810 H         1 <0>         0.0702
     46 H19        -2.1358    8.8721    0.7276 H         1 <0>         0.1105
@<TRIPOS>BOND
     1    1    2 1
     2    1   28 1
     3    1   29 1
     4    1   30 1
     5    2    8 1
     6    2    3 1
     7    2   20 1
     8    3    4 2
     9    3    5 am
    10    5    6 am
    11    5    9 1
    12    6    7 2
    13    6    8 am
    14    8   31 1
    15    9   10 2
    16   10   11 1
    17   10   32 1
    18   11   16 ar
    19   11   12 ar
    20   12   13 ar
    21   12   33 1
    22   13   14 ar
    23   13   34 1
    24   14   15 ar
    25   14   35 1
    26   15   16 ar
    27   15   18 1
    28   16   17 1
    29   17   36 1
    30   18   19 1
    31   19   37 1
    32   19   38 1
    33   19   39 1
    34   20   25 ar
    35   20   21 ar
    36   21   22 ar
    37   21   40 1
    38   22   23 ar
    39   22   41 1
    40   23   24 ar
    41   23   26 1
    42   24   25 ar
    43   24   42 1
    44   25   43 1
    45   26   27 1
    46   27   44 1
    47   27   45 1
    48   27   46 1
@<TRIPOS>MOLECULE
ZINC03579649
   46    48     0     0     0
SMALL
USER_CHARGES

@<TRIPOS>ATOM
      1 C1         -2.0700    1.8614    1.2750 C.3       1 <0>        -0.2054
      2 C2         -1.2347    2.1077    0.0171 C.3       1 <0>         0.0740
      3 C3         -0.0144    1.2086    0.0026 C.2       1 <0>         0.3006
      4 O1          0.0018   -0.0038   -0.0126 O.2       1 <0>        -0.3244
      5 N1          1.0486    2.0370    0.0042 N.am      1 <0>        -0.2581
      6 C4          0.6735    3.3211    0.0224 C.2       1 <0>         0.4244
      7 O2          1.4538    4.2529    0.0275 O.2       1 <0>        -0.3332
      8 N2         -0.6640    3.4657    0.0346 N.am      1 <0>        -0.3969
      9 N3          2.3817    1.6066   -0.0106 N.2       1 <0>         0.0219
     10 C5          2.6562    0.3414    0.0794 C.2       1 <0>        -0.0890
     11 C6          4.0579   -0.1035    0.1762 C.ar      1 <0>        -0.0543
     12 C7          4.3571   -1.4650    0.2791 C.ar      1 <0>        -0.1258
     13 C8          5.6698   -1.8776    0.3627 C.ar      1 <0>        -0.1089
     14 C9          6.6962   -0.9483    0.3583 C.ar      1 <0>        -0.1953
     15 C10         6.4144    0.4051    0.2631 C.ar      1 <0>         0.0621
     16 C11         5.0959    0.8358    0.1714 C.ar      1 <0>         0.0867
     17 O3          4.8160    2.1622    0.0779 O.3       1 <0>        -0.2519
     18 O4          7.4279    1.3120    0.2590 O.3       1 <0>        -0.1958
     19 C12         8.7580    0.7989    0.3563 C.3       1 <0>        -0.0652
     20 C13        -2.0649    1.8948   -1.2225 C.ar      1 <0>        -0.1368
     21 C14        -2.0746    0.6591   -1.8428 C.ar      1 <0>        -0.0774
     22 C15        -2.8393    0.4598   -2.9759 C.ar      1 <0>        -0.2175
     23 C16        -3.5886    1.5040   -3.4981 C.ar      1 <0>         0.1073
     24 C17        -3.5728    2.7445   -2.8771 C.ar      1 <0>        -0.1581
     25 C18        -2.8113    2.9370   -1.7407 C.ar      1 <0>        -0.0719
     26 O5         -4.3366    1.3123   -4.6165 O.3       1 <0>        -0.2098
     27 C19        -4.3050    0.0094   -5.2026 C.3       1 <0>        -0.0640
     28 H1         -1.4630    2.0585    2.1586 H         1 <0>         0.0890
     29 H2         -2.9347    2.5250    1.2728 H         1 <0>         0.0920
     30 H3         -2.4075    0.8250    1.2899 H         1 <0>         0.1040
     31 H4         -1.1565    4.3012    0.0479 H         1 <0>         0.2786
     32 H5          1.8575   -0.3855    0.0834 H         1 <0>         0.1730
     33 H6          3.5603   -2.1940    0.2881 H         1 <0>         0.1385
     34 H7          5.8985   -2.9305    0.4368 H         1 <0>         0.1351
     35 H8          7.7216   -1.2800    0.4291 H         1 <0>         0.1391
     36 H9          4.6912    2.5990    0.9316 H         1 <0>         0.2382
     37 H10         9.4683    1.6256    0.3418 H         1 <0>         0.1120
     38 H11         8.8659    0.2434    1.2878 H         1 <0>         0.0651
     39 H12         8.9545    0.1364   -0.4867 H         1 <0>         0.0689
     40 H13        -1.4871   -0.1520   -1.4388 H         1 <0>         0.1608
     41 H14        -2.8497   -0.5067   -3.4578 H         1 <0>         0.1405
     42 H15        -4.1550    3.5591   -3.2819 H         1 <0>         0.1476
     43 H16        -2.7986    3.9025   -1.2569 H         1 <0>         0.1300
     44 H17        -4.6654   -0.7229   -4.4800 H         1 <0>         0.0691
     45 H18        -4.9434   -0.0072   -6.0859 H         1 <0>         0.1103
     46 H19        -3.2822   -0.2355   -5.4888 H         1 <0>         0.0709
@<TRIPOS>BOND
     1    1    2 1
     2    1   28 1
     3    1   29 1
     4    1   30 1
     5    2    8 1
     6    2    3 1
     7    2   20 1
     8    3    4 2
     9    3    5 am
    10    5    6 am
    11    5    9 1
    12    6    7 2
    13    6    8 am
    14    8   31 1
    15    9   10 2
    16   10   11 1
    17   10   32 1
    18   11   16 ar
    19   11   12 ar
    20   12   13 ar
    21   12   33 1
    22   13   14 ar
    23   13   34 1
    24   14   15 ar
    25   14   35 1
    26   15   16 ar
    27   15   18 1
    28   16   17 1
    29   17   36 1
    30   18   19 1
    31   19   37 1
    32   19   38 1
    33   19   39 1
    34   20   25 ar
    35   20   21 ar
    36   21   22 ar
    37   21   40 1
    38   22   23 ar
    39   22   41 1
    40   23   24 ar
    41   23   26 1
    42   24   25 ar
    43   24   42 1
    44   25   43 1
    45   26   27 1
    46   27   44 1
    47   27   45 1
    48   27   46 1
@<TRIPOS>MOLECULE
ZINC03579694
   46    48     0     0     0
SMALL
USER_CHARGES

@<TRIPOS>ATOM
      1 C1         -0.0055    1.0805    0.0130 C.3       1 <0>        -0.2046
      2 C2         -0.7282    1.5781    1.2664 C.3       1 <0>         0.0737
      3 C3         -2.1102    0.9631    1.3647 C.2       1 <0>         0.3007
      4 O1         -3.0240    1.0854    0.5772 O.2       1 <0>        -0.3222
      5 N1         -2.1122    0.2528    2.5100 N.am      1 <0>        -0.2583
      6 C4         -0.9359    0.3328    3.1424 C.2       1 <0>         0.4249
      7 O2         -0.6960   -0.2237    4.1960 O.2       1 <0>        -0.3353
      8 N2         -0.0483    1.0979    2.4817 N.am      1 <0>        -0.3968
      9 N3         -3.2102   -0.4795    2.9800 N.2       1 <0>         0.0202
     10 C5         -4.3468   -0.4168    2.3567 C.2       1 <0>        -0.0877
     11 C6         -5.5303   -1.0968    2.9122 C.ar      1 <0>        -0.0525
     12 C7         -6.7553   -1.0315    2.2441 C.ar      1 <0>        -0.1192
     13 C8         -7.8618   -1.6727    2.7713 C.ar      1 <0>         0.0779
     14 C9         -7.7573   -2.3800    3.9620 C.ar      1 <0>        -0.1888
     15 C10        -6.5490   -2.4492    4.6287 C.ar      1 <0>        -0.1272
     16 C11        -5.4309   -1.8170    4.1100 C.ar      1 <0>         0.0770
     17 O3         -4.2422   -1.8907    4.7638 O.3       1 <0>        -0.2655
     18 O4         -9.0551   -1.6101    2.1222 O.3       1 <0>        -0.2114
     19 C12       -10.1566   -2.2949    2.7220 C.3       1 <0>        -0.0627
     20 C13        -0.8128    3.0827    1.2655 C.ar      1 <0>        -0.1375
     21 C14        -1.9025    3.7124    0.6930 C.ar      1 <0>        -0.0777
     22 C15        -1.9851    5.0914    0.6960 C.ar      1 <0>        -0.2179
     23 C16        -0.9683    5.8448    1.2644 C.ar      1 <0>         0.1068
     24 C17         0.1267    5.2107    1.8332 C.ar      1 <0>        -0.1584
     25 C18         0.2021    3.8314    1.8323 C.ar      1 <0>        -0.0724
     26 O5         -1.0446    7.2016    1.2637 O.3       1 <0>        -0.2098
     27 C19        -2.2008    7.7861    0.6606 C.3       1 <0>        -0.0640
     28 H1          0.0126   -0.0093    0.0126 H         1 <0>         0.0911
     29 H2          1.0160    1.4609    0.0074 H         1 <0>         0.0915
     30 H3         -0.5302    1.4355   -0.8740 H         1 <0>         0.1039
     31 H4          0.8618    1.2954    2.7531 H         1 <0>         0.2786
     32 H5         -4.4254    0.1339    1.4309 H         1 <0>         0.1733
     33 H6         -6.8382   -0.4820    1.3181 H         1 <0>         0.1516
     34 H7         -8.6248   -2.8780    4.3691 H         1 <0>         0.1391
     35 H8         -6.4752   -3.0010    5.5541 H         1 <0>         0.1457
     36 H9         -4.1032   -1.1833    5.4082 H         1 <0>         0.2372
     37 H10       -10.3416   -1.8857    3.7152 H         1 <0>         0.0677
     38 H11       -11.0452   -2.1650    2.1042 H         1 <0>         0.1101
     39 H12        -9.9232   -3.3565    2.8042 H         1 <0>         0.0694
     40 H13        -2.6917    3.1256    0.2467 H         1 <0>         0.1606
     41 H14        -2.8388    5.5826    0.2529 H         1 <0>         0.1406
     42 H15         0.9197    5.7951    2.2761 H         1 <0>         0.1476
     43 H16         1.0544    3.3373    2.2750 H         1 <0>         0.1303
     44 H17        -2.2535    7.4892   -0.3869 H         1 <0>         0.0697
     45 H18        -3.0948    7.4428    1.1810 H         1 <0>         0.0704
     46 H19        -2.1358    8.8721    0.7276 H         1 <0>         0.1105
@<TRIPOS>BOND
     1    1    2 1
     2    1   28 1
     3    1   29 1
     4    1   30 1
     5    2    8 1
     6    2    3 1
     7    2   20 1
     8    3    4 2
     9    3    5 am
    10    5    6 am
    11    5    9 1
    12    6    7 2
    13    6    8 am
    14    8   31 1
    15    9   10 2
    16   10   11 1
    17   10   32 1
    18   11   16 ar
    19   11   12 ar
    20   12   13 ar
    21   12   33 1
    22   13   14 ar
    23   13   18 1
    24   14   15 ar
    25   14   34 1
    26   15   16 ar
    27   15   35 1
    28   16   17 1
    29   17   36 1
    30   18   19 1
    31   19   37 1
    32   19   38 1
    33   19   39 1
    34   20   25 ar
    35   20   21 ar
    36   21   22 ar
    37   21   40 1
    38   22   23 ar
    39   22   41 1
    40   23   24 ar
    41   23   26 1
    42   24   25 ar
    43   24   42 1
    44   25   43 1
    45   26   27 1
    46   27   44 1
    47   27   45 1
    48   27   46 1
@<TRIPOS>MOLECULE
ZINC03579696
   46    48     0     0     0
SMALL
USER_CHARGES

@<TRIPOS>ATOM
      1 C1         -2.0526    1.6042   -1.2350 C.3       1 <0>        -0.2045
      2 C2         -1.2040    1.8296    0.0180 C.3       1 <0>         0.0739
      3 C3         -0.6283    3.2319    0.0299 C.2       1 <0>         0.3006
      4 O1         -1.2441    4.2762    0.0485 O.2       1 <0>        -0.3222
      5 N1          0.7102    3.0764    0.0097 N.am      1 <0>        -0.2584
      6 C4          1.0567    1.7842   -0.0082 C.2       1 <0>         0.4250
      7 O2          2.2074    1.3935   -0.0282 O.2       1 <0>        -0.3353
      8 N2         -0.0109    0.9658   -0.0018 N.am      1 <0>        -0.3970
      9 N3          1.6258    4.1368    0.0071 N.2       1 <0>         0.0205
     10 C5          1.2015    5.3602   -0.0810 C.2       1 <0>        -0.0881
     11 C6          2.1663    6.4682   -0.1962 C.ar      1 <0>        -0.0524
     12 C7          1.7134    7.7861   -0.2912 C.ar      1 <0>        -0.1193
     13 C8          2.6248    8.8210   -0.3992 C.ar      1 <0>         0.0780
     14 C9          3.9875    8.5525   -0.4128 C.ar      1 <0>        -0.1889
     15 C10         4.4432    7.2515   -0.3193 C.ar      1 <0>        -0.1272
     16 C11         3.5426    6.2052   -0.2053 C.ar      1 <0>         0.0767
     17 O3          3.9924    4.9269   -0.1073 O.3       1 <0>        -0.2649
     18 O4          2.1856   10.1046   -0.4917 O.3       1 <0>        -0.2114
     19 C12         3.1806   11.1245   -0.6007 C.3       1 <0>        -0.0627
     20 C13        -2.0172    1.5822    1.2624 C.ar      1 <0>        -0.1379
     21 C14        -2.7372    2.6155    1.8331 C.ar      1 <0>        -0.0763
     22 C15        -3.4879    2.3899    2.9706 C.ar      1 <0>        -0.2177
     23 C16        -3.5096    1.1282    3.5471 C.ar      1 <0>         0.1072
     24 C17        -2.7818    0.0945    2.9758 C.ar      1 <0>        -0.1583
     25 C18        -2.0375    0.3238    1.8348 C.ar      1 <0>        -0.0717
     26 O5         -4.2422    0.9053    4.6698 O.3       1 <0>        -0.2098
     27 C19        -4.9665    2.0158    5.2029 C.3       1 <0>        -0.0641
     28 H1         -2.3818    0.5657   -1.2688 H         1 <0>         0.0921
     29 H2         -2.9226    2.2604   -1.2075 H         1 <0>         0.1039
     30 H3         -1.4581    1.8260   -2.1212 H         1 <0>         0.0886
     31 H4          0.0022   -0.0041   -0.0123 H         1 <0>         0.2786
     32 H5          0.1414    5.5662   -0.0698 H         1 <0>         0.1734
     33 H6          0.6542    7.9966   -0.2808 H         1 <0>         0.1517
     34 H7          4.6944    9.3646   -0.4973 H         1 <0>         0.1391
     35 H8          5.5042    7.0502   -0.3302 H         1 <0>         0.1457
     36 H9          4.1026    4.4823   -0.9590 H         1 <0>         0.2366
     37 H10         2.6965   12.0988   -0.6670 H         1 <0>         0.1101
     38 H11         3.8255   11.0983    0.2777 H         1 <0>         0.0693
     39 H12         3.7788   10.9544   -1.4958 H         1 <0>         0.0677
     40 H13        -2.7159    3.5988    1.3869 H         1 <0>         0.1604
     41 H14        -4.0534    3.1963    3.4137 H         1 <0>         0.1407
     42 H15        -2.7967   -0.8885    3.4228 H         1 <0>         0.1476
     43 H16        -1.4707   -0.4806    1.3896 H         1 <0>         0.1302
     44 H17        -5.5070    1.7021    6.0959 H         1 <0>         0.1103
     45 H18        -4.2701    2.8136    5.4612 H         1 <0>         0.0710
     46 H19        -5.6749    2.3789    4.4582 H         1 <0>         0.0692
@<TRIPOS>BOND
     1    1    2 1
     2    1   28 1
     3    1   29 1
     4    1   30 1
     5    2    8 1
     6    2    3 1
     7    2   20 1
     8    3    4 2
     9    3    5 am
    10    5    6 am
    11    5    9 1
    12    6    7 2
    13    6    8 am
    14    8   31 1
    15    9   10 2
    16   10   11 1
    17   10   32 1
    18   11   16 ar
    19   11   12 ar
    20   12   13 ar
    21   12   33 1
    22   13   14 ar
    23   13   18 1
    24   14   15 ar
    25   14   34 1
    26   15   16 ar
    27   15   35 1
    28   16   17 1
    29   17   36 1
    30   18   19 1
    31   19   37 1
    32   19   38 1
    33   19   39 1
    34   20   25 ar
    35   20   21 ar
    36   21   22 ar
    37   21   40 1
    38   22   23 ar
    39   22   41 1
    40   23   24 ar
    41   23   26 1
    42   24   25 ar
    43   24   42 1
    44   25   43 1
    45   26   27 1
    46   27   44 1
    47   27   45 1
    48   27   46 1
@<TRIPOS>MOLECULE
ZINC03579721
   43    45     0     0     0
SMALL
USER_CHARGES

@<TRIPOS>ATOM
      1 C1         -0.0055    1.0805    0.0130 C.3       1 <0>        -0.2047
      2 C2         -0.7282    1.5781    1.2664 C.3       1 <0>         0.0739
      3 C3         -2.1102    0.9631    1.3647 C.2       1 <0>         0.3011
      4 O1         -3.0240    1.0854    0.5772 O.2       1 <0>        -0.3237
      5 N1         -2.1122    0.2528    2.5100 N.am      1 <0>        -0.2583
      6 C4         -0.9359    0.3328    3.1424 C.2       1 <0>         0.4246
      7 O2         -0.6960   -0.2237    4.1960 O.2       1 <0>        -0.3342
      8 N2         -0.0483    1.0979    2.4817 N.am      1 <0>        -0.3966
      9 N3         -3.2102   -0.4795    2.9800 N.2       1 <0>         0.0194
     10 C5         -4.3468   -0.4168    2.3567 C.2       1 <0>        -0.0892
     11 C6         -5.5304   -1.0969    2.9122 C.ar      1 <0>        -0.0761
     12 C7         -6.7576   -1.0267    2.2467 C.ar      1 <0>        -0.0958
     13 C8         -7.8610   -1.6691    2.7665 C.ar      1 <0>        -0.1352
     14 C9         -7.7639   -2.3755    3.9534 C.ar      1 <0>        -0.1246
     15 C10        -6.5552   -2.4493    4.6269 C.ar      1 <0>         0.0358
     16 C11        -5.4324   -1.8115    4.1120 C.ar      1 <0>         0.0897
     17 O3         -4.2457   -1.8811    4.7703 O.3       1 <0>        -0.2527
     18 O4         -6.4674   -3.1454    5.7920 O.3       1 <0>        -0.2732
     19 C12        -0.8128    3.0827    1.2655 C.ar      1 <0>        -0.1375
     20 C13        -1.9025    3.7124    0.6930 C.ar      1 <0>        -0.0781
     21 C14        -1.9851    5.0914    0.6960 C.ar      1 <0>        -0.2182
     22 C15        -0.9683    5.8448    1.2644 C.ar      1 <0>         0.1069
     23 C16         0.1267    5.2107    1.8332 C.ar      1 <0>        -0.1581
     24 C17         0.2021    3.8314    1.8323 C.ar      1 <0>        -0.0721
     25 O5         -1.0446    7.2016    1.2637 O.3       1 <0>        -0.2096
     26 C18        -2.2008    7.7861    0.6606 C.3       1 <0>        -0.0639
     27 H1          0.0126   -0.0093    0.0126 H         1 <0>         0.0914
     28 H2          1.0160    1.4609    0.0074 H         1 <0>         0.0919
     29 H3         -0.5302    1.4355   -0.8740 H         1 <0>         0.1038
     30 H4          0.8618    1.2954    2.7531 H         1 <0>         0.2789
     31 H5         -4.4253    0.1339    1.4310 H         1 <0>         0.1728
     32 H6         -6.8403   -0.4728    1.3232 H         1 <0>         0.1395
     33 H7         -8.8069   -1.6170    2.2480 H         1 <0>         0.1382
     34 H8         -8.6346   -2.8717    4.3561 H         1 <0>         0.1443
     35 H9         -4.1101   -1.1712    5.4127 H         1 <0>         0.2368
     36 H10        -6.6495   -2.6165    6.5808 H         1 <0>         0.2233
     37 H11        -2.6917    3.1256    0.2467 H         1 <0>         0.1601
     38 H12        -2.8388    5.5826    0.2529 H         1 <0>         0.1404
     39 H13         0.9197    5.7951    2.2761 H         1 <0>         0.1479
     40 H14         1.0544    3.3373    2.2750 H         1 <0>         0.1306
     41 H15        -3.0948    7.4428    1.1810 H         1 <0>         0.0700
     42 H16        -2.1358    8.8721    0.7276 H         1 <0>         0.1108
     43 H17        -2.2535    7.4892   -0.3869 H         1 <0>         0.0697
@<TRIPOS>BOND
     1    1    2 1
     2    1   27 1
     3    1   28 1
     4    1   29 1
     5    2    8 1
     6    2    3 1
     7    2   19 1
     8    3    4 2
     9    3    5 am
    10    5    6 am
    11    5    9 1
    12    6    7 2
    13    6    8 am
    14    8   30 1
    15    9   10 2
    16   10   11 1
    17   10   31 1
    18   11   16 ar
    19   11   12 ar
    20   12   13 ar
    21   12   32 1
    22   13   14 ar
    23   13   33 1
    24   14   15 ar
    25   14   34 1
    26   15   16 ar
    27   15   18 1
    28   16   17 1
    29   17   35 1
    30   18   36 1
    31   19   24 ar
    32   19   20 ar
    33   20   21 ar
    34   20   37 1
    35   21   22 ar
    36   21   38 1
    37   22   23 ar
    38   22   25 1
    39   23   24 ar
    40   23   39 1
    41   24   40 1
    42   25   26 1
    43   26   41 1
    44   26   42 1
    45   26   43 1
@<TRIPOS>MOLECULE
ZINC03579723
   43    45     0     0     0
SMALL
USER_CHARGES

@<TRIPOS>ATOM
      1 C1         -2.0700    1.8614    1.2750 C.3       1 <0>        -0.2054
      2 C2         -1.2347    2.1077    0.0171 C.3       1 <0>         0.0743
      3 C3         -0.0144    1.2086    0.0026 C.2       1 <0>         0.3008
      4 O1          0.0018   -0.0038   -0.0126 O.2       1 <0>        -0.3242
      5 N1          1.0486    2.0370    0.0042 N.am      1 <0>        -0.2581
      6 C4          0.6735    3.3211    0.0224 C.2       1 <0>         0.4245
      7 O2          1.4538    4.2529    0.0275 O.2       1 <0>        -0.3341
      8 N2         -0.6640    3.4657    0.0346 N.am      1 <0>        -0.3965
      9 N3          2.3817    1.6066   -0.0106 N.2       1 <0>         0.0196
     10 C5          2.6562    0.3414    0.0794 C.2       1 <0>        -0.0896
     11 C6          4.0579   -0.1035    0.1762 C.ar      1 <0>        -0.0761
     12 C7          4.3571   -1.4650    0.2791 C.ar      1 <0>        -0.0959
     13 C8          5.6698   -1.8776    0.3627 C.ar      1 <0>        -0.1351
     14 C9          6.6962   -0.9483    0.3583 C.ar      1 <0>        -0.1246
     15 C10         6.4144    0.4051    0.2631 C.ar      1 <0>         0.0359
     16 C11         5.0959    0.8358    0.1714 C.ar      1 <0>         0.0895
     17 O3          4.8160    2.1622    0.0779 O.3       1 <0>        -0.2522
     18 O4          7.4279    1.3120    0.2590 O.3       1 <0>        -0.2731
     19 C12        -2.0649    1.8948   -1.2225 C.ar      1 <0>        -0.1374
     20 C13        -2.0746    0.6591   -1.8428 C.ar      1 <0>        -0.0774
     21 C14        -2.8393    0.4598   -2.9759 C.ar      1 <0>        -0.2173
     22 C15        -3.5886    1.5040   -3.4981 C.ar      1 <0>         0.1077
     23 C16        -3.5728    2.7445   -2.8771 C.ar      1 <0>        -0.1579
     24 C17        -2.8113    2.9370   -1.7407 C.ar      1 <0>        -0.0718
     25 O5         -4.3366    1.3123   -4.6165 O.3       1 <0>        -0.2096
     26 C18        -4.3050    0.0094   -5.2026 C.3       1 <0>        -0.0641
     27 H1         -1.4630    2.0585    2.1586 H         1 <0>         0.0885
     28 H2         -2.9347    2.5250    1.2728 H         1 <0>         0.0924
     29 H3         -2.4075    0.8250    1.2899 H         1 <0>         0.1042
     30 H4         -1.1565    4.3012    0.0479 H         1 <0>         0.2789
     31 H5          1.8575   -0.3855    0.0834 H         1 <0>         0.1728
     32 H6          3.5603   -2.1940    0.2881 H         1 <0>         0.1396
     33 H7          5.8985   -2.9305    0.4368 H         1 <0>         0.1382
     34 H8          7.7216   -1.2800    0.4291 H         1 <0>         0.1444
     35 H9          4.6912    2.5990    0.9316 H         1 <0>         0.2362
     36 H10         7.6770    1.6274    1.1385 H         1 <0>         0.2232
     37 H11        -1.4871   -0.1520   -1.4388 H         1 <0>         0.1605
     38 H12        -2.8497   -0.5067   -3.4578 H         1 <0>         0.1407
     39 H13        -4.1550    3.5591   -3.2819 H         1 <0>         0.1478
     40 H14        -2.7986    3.9025   -1.2569 H         1 <0>         0.1299
     41 H15        -4.9434   -0.0072   -6.0859 H         1 <0>         0.1106
     42 H16        -3.2822   -0.2355   -5.4888 H         1 <0>         0.0711
     43 H17        -4.6654   -0.7229   -4.4800 H         1 <0>         0.0692
@<TRIPOS>BOND
     1    1    2 1
     2    1   27 1
     3    1   28 1
     4    1   29 1
     5    2    8 1
     6    2    3 1
     7    2   19 1
     8    3    4 2
     9    3    5 am
    10    5    6 am
    11    5    9 1
    12    6    7 2
    13    6    8 am
    14    8   30 1
    15    9   10 2
    16   10   11 1
    17   10   31 1
    18   11   16 ar
    19   11   12 ar
    20   12   13 ar
    21   12   32 1
    22   13   14 ar
    23   13   33 1
    24   14   15 ar
    25   14   34 1
    26   15   16 ar
    27   15   18 1
    28   16   17 1
    29   17   35 1
    30   18   36 1
    31   19   24 ar
    32   19   20 ar
    33   20   21 ar
    34   20   37 1
    35   21   22 ar
    36   21   38 1
    37   22   23 ar
    38   22   25 1
    39   23   24 ar
    40   23   39 1
    41   24   40 1
    42   25   26 1
    43   26   41 1
    44   26   42 1
    45   26   43 1
@<TRIPOS>MOLECULE
ZINC03579745
   46    48     0     0     0
SMALL
USER_CHARGES

@<TRIPOS>ATOM
      1 C1         -0.0100    1.0950    0.0049 C.3       1 <0>        -0.2055
      2 C2         -0.7279    1.5795    1.2662 C.3       1 <0>         0.0744
      3 C3         -0.0010    1.1054    2.5090 C.2       1 <0>         0.3015
      4 O1          0.1948   -0.0416    2.8502 O.2       1 <0>        -0.3227
      5 N1          0.3816    2.2238    3.1563 N.am      1 <0>        -0.2546
      6 C4          0.0015    3.3272    2.5020 C.2       1 <0>         0.4253
      7 O2          0.2324    4.4558    2.8895 O.2       1 <0>        -0.3379
      8 N2         -0.6645    3.0478    1.3670 N.am      1 <0>        -0.3960
      9 N3          1.0906    2.2303    4.3646 N.2       1 <0>        -0.0131
     10 C5          1.3276    1.1147    4.9838 C.2       1 <0>        -0.0737
     11 C6          1.9745    1.1300    6.3084 C.ar      1 <0>        -0.0908
     12 C7          2.3332    2.3446    6.8987 C.ar      1 <0>        -0.0518
     13 C8          2.9382    2.3566    8.1376 C.ar      1 <0>        -0.2229
     14 C9          3.1927    1.1647    8.8007 C.ar      1 <0>         0.0923
     15 C10         2.8374   -0.0501    8.2183 C.ar      1 <0>         0.0323
     16 C11         2.2254   -0.0699    6.9792 C.ar      1 <0>        -0.0896
     17 O3          3.0881   -1.2163    8.8715 O.3       1 <0>        -0.2733
     18 O4          3.7898    1.1823   10.0216 O.3       1 <0>        -0.1972
     19 C12         4.1271    2.4621   10.5604 C.3       1 <0>        -0.0668
     20 C13        -2.1584    1.1055    1.2754 C.ar      1 <0>        -0.1377
     21 C14        -2.4806   -0.1049    1.8608 C.ar      1 <0>        -0.0775
     22 C15        -3.7920   -0.5390    1.8755 C.ar      1 <0>        -0.2178
     23 C16        -4.7844    0.2356    1.2926 C.ar      1 <0>         0.1072
     24 C17        -4.4577    1.4471    0.7008 C.ar      1 <0>        -0.1581
     25 C18        -3.1456    1.8792    0.6933 C.ar      1 <0>        -0.0721
     26 O5         -6.0744   -0.1918    1.3008 O.3       1 <0>        -0.2096
     27 C19        -6.3374   -1.4488    1.9277 C.3       1 <0>        -0.0640
     28 H1          0.0113    0.0053   -0.0050 H         1 <0>         0.1044
     29 H2          1.0102    1.4785   -0.0024 H         1 <0>         0.0906
     30 H3         -0.5403    1.4561   -0.8763 H         1 <0>         0.0923
     31 H4         -1.0311    3.6883    0.7375 H         1 <0>         0.2789
     32 H5          1.0510    0.1752    4.5288 H         1 <0>         0.1717
     33 H6          2.1369    3.2738    6.3845 H         1 <0>         0.1613
     34 H7          3.2150    3.2960    8.5928 H         1 <0>         0.1441
     35 H8          1.9457   -1.0107    6.5285 H         1 <0>         0.1496
     36 H9          2.3678   -1.5073    9.4474 H         1 <0>         0.2242
     37 H10         4.5959    2.3334   11.5360 H         1 <0>         0.1118
     38 H11         4.8200    2.9681    9.8883 H         1 <0>         0.0724
     39 H12         3.2227    3.0608   10.6681 H         1 <0>         0.0687
     40 H13        -1.7070   -0.7096    2.3105 H         1 <0>         0.1605
     41 H14        -4.0439   -1.4823    2.3371 H         1 <0>         0.1406
     42 H15        -5.2284    2.0518    0.2461 H         1 <0>         0.1478
     43 H16        -2.8907    2.8222    0.2328 H         1 <0>         0.1303
     44 H17        -7.4027   -1.6705    1.8644 H         1 <0>         0.1107
     45 H18        -5.7725   -2.2321    1.4223 H         1 <0>         0.0697
     46 H19        -6.0375   -1.4024    2.9747 H         1 <0>         0.0704
@<TRIPOS>BOND
     1    1    2 1
     2    1   28 1
     3    1   29 1
     4    1   30 1
     5    2    8 1
     6    2    3 1
     7    2   20 1
     8    3    4 2
     9    3    5 am
    10    5    6 am
    11    5    9 1
    12    6    7 2
    13    6    8 am
    14    8   31 1
    15    9   10 2
    16   10   11 1
    17   10   32 1
    18   11   16 ar
    19   11   12 ar
    20   12   13 ar
    21   12   33 1
    22   13   14 ar
    23   13   34 1
    24   14   15 ar
    25   14   18 1
    26   15   16 ar
    27   15   17 1
    28   16   35 1
    29   17   36 1
    30   18   19 1
    31   19   37 1
    32   19   38 1
    33   19   39 1
    34   20   25 ar
    35   20   21 ar
    36   21   22 ar
    37   21   40 1
    38   22   23 ar
    39   22   41 1
    40   23   24 ar
    41   23   26 1
    42   24   25 ar
    43   24   42 1
    44   25   43 1
    45   26   27 1
    46   27   44 1
    47   27   45 1
    48   27   46 1
@<TRIPOS>MOLECULE
ZINC03579747
   46    48     0     0     0
SMALL
USER_CHARGES

@<TRIPOS>ATOM
      1 C1         -2.0699    1.8614    1.2753 C.3       1 <0>        -0.2054
      2 C2         -1.2347    2.1078    0.0172 C.3       1 <0>         0.0746
      3 C3         -0.0145    1.2086    0.0027 C.2       1 <0>         0.3014
      4 O1          0.0018   -0.0037   -0.0124 O.2       1 <0>        -0.3229
      5 N1          1.0486    2.0370    0.0043 N.am      1 <0>        -0.2547
      6 C4          0.6735    3.3211    0.0225 C.2       1 <0>         0.4252
      7 O2          1.4538    4.2529    0.0274 O.2       1 <0>        -0.3380
      8 N2         -0.6639    3.4657    0.0347 N.am      1 <0>        -0.3960
      9 N3          2.3817    1.6066   -0.0120 N.2       1 <0>        -0.0128
     10 C5          2.6563    0.3414    0.0765 C.2       1 <0>        -0.0742
     11 C6          4.0584   -0.1037    0.1718 C.ar      1 <0>        -0.0908
     12 C7          5.0931    0.8353    0.1669 C.ar      1 <0>        -0.0519
     13 C8          6.4038    0.4169    0.2566 C.ar      1 <0>        -0.2229
     14 C9          6.6989   -0.9355    0.3518 C.ar      1 <0>         0.0922
     15 C10         5.6723   -1.8774    0.3573 C.ar      1 <0>         0.0323
     16 C11         4.3556   -1.4653    0.2730 C.ar      1 <0>        -0.0896
     17 O3          5.9654   -3.2021    0.4507 O.3       1 <0>        -0.2734
     18 O4          7.9927   -1.3424    0.4405 O.3       1 <0>        -0.1972
     19 C12         8.9953   -0.3242    0.4298 C.3       1 <0>        -0.0668
     20 C13        -2.0650    1.8948   -1.2222 C.ar      1 <0>        -0.1377
     21 C14        -2.0747    0.6591   -1.8425 C.ar      1 <0>        -0.0775
     22 C15        -2.8395    0.4598   -2.9756 C.ar      1 <0>        -0.2173
     23 C16        -3.5888    1.5040   -3.4978 C.ar      1 <0>         0.1076
     24 C17        -3.5729    2.7444   -2.8768 C.ar      1 <0>        -0.1582
     25 C18        -2.8113    2.9370   -1.7405 C.ar      1 <0>        -0.0722
     26 O5         -4.3369    1.3122   -4.6161 O.3       1 <0>        -0.2097
     27 C19        -4.3053    0.0093   -5.2021 C.3       1 <0>        -0.0642
     28 H1         -1.4628    2.0586    2.1588 H         1 <0>         0.0897
     29 H2         -2.9346    2.5251    1.2730 H         1 <0>         0.0922
     30 H3         -2.4074    0.8251    1.2902 H         1 <0>         0.1044
     31 H4         -1.1565    4.3013    0.0480 H         1 <0>         0.2789
     32 H5          1.8575   -0.3855    0.0804 H         1 <0>         0.1717
     33 H6          4.8662    1.8886    0.0933 H         1 <0>         0.1613
     34 H7          7.2027    1.1436    0.2531 H         1 <0>         0.1441
     35 H8          3.5587   -2.1941    0.2816 H         1 <0>         0.1497
     36 H9          6.0067   -3.5327    1.3585 H         1 <0>         0.2243
     37 H10         8.8407    0.3468    1.2748 H         1 <0>         0.0686
     38 H11         9.9807   -0.7837    0.5062 H         1 <0>         0.1119
     39 H12         8.9291    0.2411   -0.4999 H         1 <0>         0.0724
     40 H13        -1.4872   -0.1520   -1.4385 H         1 <0>         0.1610
     41 H14        -2.8499   -0.5068   -3.4574 H         1 <0>         0.1410
     42 H15        -4.1552    3.5590   -3.2816 H         1 <0>         0.1477
     43 H16        -2.7986    3.9025   -1.2567 H         1 <0>         0.1298
     44 H17        -3.2825   -0.2357   -5.4884 H         1 <0>         0.0709
     45 H18        -4.6657   -0.7230   -4.4796 H         1 <0>         0.0695
     46 H19        -4.9437   -0.0074   -6.0855 H         1 <0>         0.1107
@<TRIPOS>BOND
     1    1    2 1
     2    1   28 1
     3    1   29 1
     4    1   30 1
     5    2    8 1
     6    2    3 1
     7    2   20 1
     8    3    4 2
     9    3    5 am
    10    5    6 am
    11    5    9 1
    12    6    7 2
    13    6    8 am
    14    8   31 1
    15    9   10 2
    16   10   11 1
    17   10   32 1
    18   11   16 ar
    19   11   12 ar
    20   12   13 ar
    21   12   33 1
    22   13   14 ar
    23   13   34 1
    24   14   15 ar
    25   14   18 1
    26   15   16 ar
    27   15   17 1
    28   16   35 1
    29   17   36 1
    30   18   19 1
    31   19   37 1
    32   19   38 1
    33   19   39 1
    34   20   25 ar
    35   20   21 ar
    36   21   22 ar
    37   21   40 1
    38   22   23 ar
    39   22   41 1
    40   23   24 ar
    41   23   26 1
    42   24   25 ar
    43   24   42 1
    44   25   43 1
    45   26   27 1
    46   27   44 1
    47   27   45 1
    48   27   46 1
@<TRIPOS>MOLECULE
ZINC03581231
   43    45     0     0     0
SMALL
USER_CHARGES

@<TRIPOS>ATOM
      1 C1          8.5123    4.5611   -0.7475 C.3       1 <0>        -0.2348
      2 C2          7.6828    5.2099    0.3624 C.3       1 <0>        -0.0155
      3 N1          7.0123    4.1676    1.1438 N.pl3     1 <0>        -0.1771
      4 C3          7.5072    3.5443    2.2477 C.2       1 <0>         0.0247
      5 N2          6.6507    2.6716    2.6908 N.2       1 <0>        -0.1653
      6 C4          5.5461    2.6759    1.8998 C.ar      1 <0>        -0.0579
      7 C5          5.7648    3.6374    0.8958 C.ar      1 <0>        -0.0290
      8 C6          4.7947    3.8688   -0.0728 C.ar      1 <0>        -0.1322
      9 C7          3.6285    3.1602   -0.0577 C.ar      1 <0>        -0.0964
     10 C8          3.3920    2.2031    0.9377 C.ar      1 <0>        -0.1486
     11 C9          4.3515    1.9583    1.9154 C.ar      1 <0>         0.0069
     12 C10         2.1232    1.4473    0.9457 C.2       1 <0>         0.3594
     13 O1          1.9182    0.6128    1.8057 O.2       1 <0>        -0.3475
     14 N3          1.1926    1.6828   -0.0003 N.am      1 <0>        -0.2763
     15 N4         -0.0111    0.9658    0.0074 N.pl3     1 <0>        -0.7526
     16 S1         -1.4563    1.7742    0.0186 S.o2      1 <0>         2.7615
     17 O2         -2.4724    0.7917   -0.1276 O.2       1 <0>        -0.9013
     18 O3         -1.4135    2.6674    1.1230 O.2       1 <0>        -0.8733
     19 C11        -1.5070    2.7710   -1.4335 C.ar      1 <0>        -0.7963
     20 C12        -2.4420    2.5116   -2.4178 C.ar      1 <0>        -0.0010
     21 C13        -2.4857    3.2969   -3.5545 C.ar      1 <0>        -0.1594
     22 C14        -1.5870    4.3356   -3.7134 C.ar      1 <0>        -0.0509
     23 C15        -0.6478    4.5933   -2.7333 C.ar      1 <0>        -0.1832
     24 C16        -0.6067    3.8107   -1.5915 C.ar      1 <0>         0.1729
     25 F1          0.3115    4.0614   -0.6327 F         1 <0>        -0.0927
     26 C17         8.8526    3.8241    2.8664 C.3       1 <0>        -0.1400
     27 H1          9.2590    3.9019   -0.3049 H         1 <0>         0.0874
     28 H2          7.8577    3.9827   -1.3995 H         1 <0>         0.0906
     29 H3          9.0111    5.3366   -1.3288 H         1 <0>         0.0872
     30 H4          6.9360    5.8691   -0.0802 H         1 <0>         0.1027
     31 H5          8.3373    5.7883    1.0144 H         1 <0>         0.1013
     32 H6          4.9665    4.6073   -0.8419 H         1 <0>         0.1269
     33 H7          2.8810    3.3414   -0.8158 H         1 <0>         0.1242
     34 H8          4.1718    1.2175    2.6805 H         1 <0>         0.1715
     35 H9          1.3561    2.3486   -0.6864 H         1 <0>         0.2487
     36 H10         0.0021   -0.0041    0.0020 H         1 <0>         0.2633
     37 H11        -3.1416    1.6977   -2.2968 H         1 <0>         0.1659
     38 H12        -3.2195    3.0963   -4.3210 H         1 <0>         0.1446
     39 H13        -1.6190    4.9456   -4.6040 H         1 <0>         0.1424
     40 H14         0.0543    5.4044   -2.8578 H         1 <0>         0.1505
     41 H15         9.6015    3.1711    2.4184 H         1 <0>         0.0992
     42 H16         9.1248    4.8646    2.6888 H         1 <0>         0.0827
     43 H17         8.8045    3.6392    3.9395 H         1 <0>         0.1168
@<TRIPOS>BOND
     1    1    2 1
     2    1   27 1
     3    1   28 1
     4    1   29 1
     5    2    3 1
     6    2   30 1
     7    2   31 1
     8    3    7 1
     9    3    4 1
    10    4    5 2
    11    4   26 1
    12    5    6 1
    13    6   11 ar
    14    6    7 ar
    15    7    8 ar
    16    8    9 ar
    17    8   32 1
    18    9   10 ar
    19    9   33 1
    20   10   11 ar
    21   10   12 1
    22   11   34 1
    23   12   13 2
    24   12   14 am
    25   14   15 1
    26   14   35 1
    27   15   16 1
    28   15   36 1
    29   16   17 2
    30   16   18 2
    31   16   19 1
    32   19   24 ar
    33   19   20 ar
    34   20   21 ar
    35   20   37 1
    36   21   22 ar
    37   21   38 1
    38   22   23 ar
    39   22   39 1
    40   23   24 ar
    41   23   40 1
    42   24   25 1
    43   26   41 1
    44   26   42 1
    45   26   43 1
@<TRIPOS>MOLECULE
ZINC03599237
   39    43     0     0     0
SMALL
USER_CHARGES

@<TRIPOS>ATOM
      1 C1          1.1786    1.7827   -0.0010 C.ar      1 <0>        -0.0986
      2 C2         -0.0124    1.0769    0.0003 C.ar      1 <0>        -0.1375
      3 C3         -1.2191    1.7480    0.0137 C.ar      1 <0>        -0.0877
      4 C4         -1.2392    3.1351    0.0366 C.ar      1 <0>        -0.0128
      5 C5         -0.0393    3.8467    0.0349 C.ar      1 <0>         0.0463
      6 C6          1.1693    3.1629    0.0160 C.ar      1 <0>        -0.1424
      7 N1         -0.3571    5.2010    0.0542 N.pl3     1 <0>        -0.2346
      8 H1          0.2770    5.9350    0.0575 H         1 <0>         0.2746
      9 C7         -1.7364    5.3184    0.0678 C.2       1 <0>         0.0845
     10 N2         -2.2811    4.0653    0.0572 N.pl3     1 <0>        -0.1330
     11 C8         -3.6436    4.1961    0.0711 C.2       1 <0>        -0.1838
     12 N3         -3.9276    5.4757    0.0896 N.2       1 <0>        -0.0962
     13 N4         -2.7213    6.1876    0.0875 N.2       1 <0>        -0.1273
     14 S1         -4.8109    2.8762    0.0658 S.3       1 <0>         0.3191
     15 C9         -6.4200    3.7133    0.0905 C.3       1 <0>        -0.3093
     16 C10        -7.5214    2.6848    0.0881 C.2       1 <0>         0.3189
     17 O1         -7.2478    1.5032    0.0714 O.2       1 <0>        -0.3379
     18 N5         -8.8105    3.0778    0.1046 N.am      1 <0>        -0.3181
     19 C11        -9.8342    2.1265    0.0047 C.ar      1 <0>         0.0622
     20 C12       -11.0054    2.4357   -0.6740 C.ar      1 <0>        -0.1564
     21 C13       -12.0142    1.4971   -0.7769 C.ar      1 <0>        -0.0967
     22 C14       -11.8639    0.2484   -0.1956 C.ar      1 <0>        -0.0103
     23 C15       -10.6924   -0.0628    0.4904 C.ar      1 <0>         0.0223
     24 C16        -9.6800    0.8770    0.5891 C.ar      1 <0>        -0.1138
     25 O2        -10.7903   -1.3391    0.9646 O.3       1 <0>        -0.2022
     26 C17       -12.1926   -1.6617    0.9143 C.3       1 <0>         0.1067
     27 O3        -12.6960   -0.8340   -0.1509 O.3       1 <0>        -0.2078
     28 H2          2.1187    1.2513   -0.0156 H         1 <0>         0.1412
     29 H3          0.0023   -0.0029   -0.0137 H         1 <0>         0.1436
     30 H4         -2.1460    1.1938    0.0101 H         1 <0>         0.1508
     31 H5          2.1004    3.7102    0.0149 H         1 <0>         0.1399
     32 H6         -6.4971    4.3261    0.9887 H         1 <0>         0.1366
     33 H7         -6.5132    4.3475   -0.7911 H         1 <0>         0.1386
     34 H8         -9.0295    4.0193    0.1856 H         1 <0>         0.2383
     35 H9        -11.1266    3.4096   -1.1247 H         1 <0>         0.1394
     36 H10       -12.9225    1.7382   -1.3091 H         1 <0>         0.1463
     37 H11        -8.7709    0.6379    1.1208 H         1 <0>         0.1783
     38 H12       -12.6777   -1.4095    1.8573 H         1 <0>         0.0874
     39 H13       -12.3347   -2.7166    0.6795 H         1 <0>         0.1311
@<TRIPOS>BOND
     1    1    6 ar
     2    1    2 ar
     3    1   28 1
     4    2    3 ar
     5    2   29 1
     6    3    4 ar
     7    3   30 1
     8    4   10 1
     9    4    5 ar
    10    5    6 ar
    11    5    7 1
    12    6   31 1
    13    7    8 1
    14    7    9 1
    15    9   13 2
    16    9   10 1
    17   10   11 1
    18   11   12 2
    19   11   14 1
    20   12   13 1
    21   14   15 1
    22   15   16 1
    23   15   32 1
    24   15   33 1
    25   16   17 2
    26   16   18 am
    27   18   19 1
    28   18   34 1
    29   19   24 ar
    30   19   20 ar
    31   20   21 ar
    32   20   35 1
    33   21   22 ar
    34   21   36 1
    35   22   27 1
    36   22   23 ar
    37   23   24 ar
    38   23   25 1
    39   24   37 1
    40   25   26 1
    41   26   27 1
    42   26   38 1
    43   26   39 1
@<TRIPOS>MOLECULE
ZINC03599947
   41    43     0     0     0
SMALL
USER_CHARGES

@<TRIPOS>ATOM
      1 C1         -3.2240    2.3322   -2.4764 C.3       1 <0>        -0.1675
      2 C2         -2.4682    1.8318   -3.6803 C.2       1 <0>        -0.0799
      3 C3         -2.9778    1.9819   -4.9116 C.2       1 <0>        -0.2601
      4 S1         -1.7424    1.2476   -5.9668 S.3       1 <0>         0.3823
      5 C4         -0.5743    0.7584   -4.7257 C.ar      1 <0>        -0.0993
      6 C5         -1.1818    1.1763   -3.5200 C.ar      1 <0>        -0.1945
      7 C6         -0.4395    0.9083   -2.3398 C.ar      1 <0>         0.2276
      8 N1          0.7282    0.2974   -2.4370 N.ar      1 <0>        -0.3191
      9 C7          1.2356   -0.0711   -3.5998 C.ar      1 <0>         0.0694
     10 N2          0.5965    0.1543   -4.7314 N.ar      1 <0>        -0.1979
     11 O1         -0.9251    1.2695   -1.1281 O.3       1 <0>        -0.1582
     12 C8         -0.1211    0.9593    0.0118 C.3       1 <0>        -0.0326
     13 C9         -0.8175    1.4327    1.2616 C.2       1 <0>         0.2975
     14 O2         -1.8961    1.9816    1.1839 O.2       1 <0>        -0.3243
     15 N3         -0.2416    1.2460    2.4658 N.am      1 <0>        -0.3264
     16 C10        -0.8312    1.7800    3.6109 C.ar      1 <0>         0.0875
     17 C11        -1.5123    2.9912    3.5405 C.ar      1 <0>        -0.1390
     18 C12        -2.0998    3.5189    4.6683 C.ar      1 <0>        -0.0857
     19 C13        -2.0023    2.8419    5.8869 C.ar      1 <0>        -0.1475
     20 C14        -1.3129    1.6282    5.9552 C.ar      1 <0>        -0.0461
     21 C15        -0.7323    1.1034    4.8226 C.ar      1 <0>        -0.1733
     22 C16        -2.6264    3.4072    7.0991 C.2       1 <0>         0.3516
     23 O3         -2.5411    2.8169    8.1585 O.2       1 <0>        -0.3710
     24 N4         -3.2909    4.5779    7.0315 N.am      1 <0>        -0.4283
     25 C17        -4.2840    2.6197   -5.3090 C.3       1 <0>        -0.1274
     26 H1         -3.8757    1.5425   -2.1025 H         1 <0>         0.0940
     27 H2         -2.5177    2.6195   -1.6976 H         1 <0>         0.1101
     28 H3         -3.8254    3.1964   -2.7584 H         1 <0>         0.0787
     29 H4          2.1945   -0.5673   -3.6244 H         1 <0>         0.2026
     30 H5          0.0310   -0.1187    0.0667 H         1 <0>         0.1119
     31 H6          0.8439    1.4582   -0.0776 H         1 <0>         0.1122
     32 H7          0.5831    0.7400    2.5358 H         1 <0>         0.2363
     33 H8         -1.5837    3.5160    2.5993 H         1 <0>         0.1622
     34 H9         -2.6318    4.4571    4.6121 H         1 <0>         0.1297
     35 H10        -1.2361    1.1023    6.8954 H         1 <0>         0.1608
     36 H11        -0.1997    0.1653    4.8746 H         1 <0>         0.1365
     37 H12        -3.3589    5.0488    6.1862 H         1 <0>         0.2161
     38 H13        -3.7011    4.9494    7.8281 H         1 <0>         0.2316
     39 H14        -4.3945    2.5770   -6.3926 H         1 <0>         0.0882
     40 H15        -5.1081    2.0837   -4.8384 H         1 <0>         0.0959
     41 H16        -4.2943    3.6600   -4.9836 H         1 <0>         0.0953
@<TRIPOS>BOND
     1    1    2 1
     2    1   26 1
     3    1   27 1
     4    1   28 1
     5    2    6 1
     6    2    3 2
     7    3    4 1
     8    3   25 1
     9    4    5 1
    10    5   10 ar
    11    5    6 ar
    12    6    7 ar
    13    7    8 ar
    14    7   11 1
    15    8    9 ar
    16    9   10 ar
    17    9   29 1
    18   11   12 1
    19   12   13 1
    20   12   30 1
    21   12   31 1
    22   13   14 2
    23   13   15 am
    24   15   16 1
    25   15   32 1
    26   16   21 ar
    27   16   17 ar
    28   17   18 ar
    29   17   33 1
    30   18   19 ar
    31   18   34 1
    32   19   20 ar
    33   19   22 1
    34   20   21 ar
    35   20   35 1
    36   21   36 1
    37   22   23 2
    38   22   24 am
    39   24   37 1
    40   24   38 1
    41   25   39 1
    42   25   40 1
    43   25   41 1
@<TRIPOS>MOLECULE
ZINC03605510
   40    41     0     0     0
SMALL
USER_CHARGES

@<TRIPOS>ATOM
      1 C1          2.4943    1.1268   -0.3270 C.3       1 <0>        -0.1764
      2 C2          1.1714    1.8486   -0.3367 C.ar      1 <0>        -0.0812
      3 C3         -0.0032    1.1386   -0.1646 C.ar      1 <0>        -0.1062
      4 C4         -1.2173    1.7957   -0.1790 C.ar      1 <0>        -0.1552
      5 C5         -1.2577    3.1738   -0.3553 C.ar      1 <0>        -0.2093
      6 C6         -0.0758    3.8837   -0.5278 C.ar      1 <0>        -0.1044
      7 C7          1.1347    3.2190   -0.5180 C.ar      1 <0>        -0.0573
      8 C8          2.4172    3.9881   -0.7045 C.3       1 <0>        -0.1778
      9 S1         -2.8045    4.0176   -0.3678 S.3       1 <0>         0.2470
     10 C9         -4.0250    2.7004   -0.1111 C.3       1 <0>        -0.3175
     11 C10        -5.4101    3.2940   -0.1005 C.2       1 <0>         0.3184
     12 O1         -5.5592    4.4881   -0.2512 O.2       1 <0>        -0.3258
     13 N1         -6.4832    2.4980    0.0766 N.am      1 <0>        -0.3250
     14 C11        -7.7545    3.0580    0.1965 C.ar      1 <0>         0.0867
     15 C12        -7.9132    4.2931    0.8171 C.ar      1 <0>        -0.1385
     16 C13        -9.1665    4.8510    0.9328 C.ar      1 <0>        -0.0853
     17 C14       -10.2812    4.1704    0.4357 C.ar      1 <0>        -0.1481
     18 C15       -10.1189    2.9276   -0.1823 C.ar      1 <0>        -0.0465
     19 C16        -8.8623    2.3777   -0.2995 C.ar      1 <0>        -0.1742
     20 C17       -11.6269    4.7632    0.5627 C.2       1 <0>         0.3518
     21 O2        -12.5958    4.1701    0.1294 O.2       1 <0>        -0.3720
     22 N2        -11.7818    5.9619    1.1590 N.am      1 <0>        -0.4283
     23 H1          2.7465    0.8169   -1.3411 H         1 <0>         0.0872
     24 H2          3.2689    1.7931    0.0525 H         1 <0>         0.0860
     25 H3          2.4242    0.2484    0.3146 H         1 <0>         0.0805
     26 H4          0.0292    0.0684   -0.0232 H         1 <0>         0.1308
     27 H5         -2.1343    1.2401   -0.0494 H         1 <0>         0.1220
     28 H6         -0.1037    4.9540   -0.6699 H         1 <0>         0.1423
     29 H7          2.6603    4.0372   -1.7659 H         1 <0>         0.0892
     30 H8          2.2956    4.9978   -0.3125 H         1 <0>         0.0838
     31 H9          3.2233    3.4854   -0.1701 H         1 <0>         0.0864
     32 H10        -3.9483    1.9716   -0.9180 H         1 <0>         0.1225
     33 H11        -3.8334    2.2082    0.8424 H         1 <0>         0.1229
     34 H12        -6.3710    1.5355    0.1205 H         1 <0>         0.2350
     35 H13        -7.0518    4.8166    1.2047 H         1 <0>         0.1633
     36 H14        -9.2885    5.8117    1.4110 H         1 <0>         0.1298
     37 H15       -10.9783    2.3992   -0.5678 H         1 <0>         0.1602
     38 H16        -8.7361    1.4174   -0.7773 H         1 <0>         0.1356
     39 H17       -11.0088    6.4351    1.5047 H         1 <0>         0.2163
     40 H18       -12.6662    6.3515    1.2424 H         1 <0>         0.2313
@<TRIPOS>BOND
     1    1    2 1
     2    1   23 1
     3    1   24 1
     4    1   25 1
     5    2    7 ar
     6    2    3 ar
     7    3    4 ar
     8    3   26 1
     9    4    5 ar
    10    4   27 1
    11    5    6 ar
    12    5    9 1
    13    6    7 ar
    14    6   28 1
    15    7    8 1
    16    8   29 1
    17    8   30 1
    18    8   31 1
    19    9   10 1
    20   10   11 1
    21   10   32 1
    22   10   33 1
    23   11   12 2
    24   11   13 am
    25   13   14 1
    26   13   34 1
    27   14   19 ar
    28   14   15 ar
    29   15   16 ar
    30   15   35 1
    31   16   17 ar
    32   16   36 1
    33   17   18 ar
    34   17   20 1
    35   18   19 ar
    36   18   37 1
    37   19   38 1
    38   20   21 2
    39   20   22 am
    40   22   39 1
    41   22   40 1
@<TRIPOS>MOLECULE
ZINC03605572
   40    42     0     0     0
SMALL
USER_CHARGES

@<TRIPOS>ATOM
      1 C1          6.8319   -7.6783    0.1600 C.ar      1 <0>        -0.0464
      2 C2          5.7101   -6.8896    0.2823 C.ar      1 <0>        -0.1740
      3 C3          5.7150   -5.5890   -0.2118 C.ar      1 <0>         0.0864
      4 C4          6.8509   -5.0828   -0.8356 C.ar      1 <0>        -0.1384
      5 C5          7.9778   -5.8643   -0.9565 C.ar      1 <0>        -0.0853
      6 C6          7.9764   -7.1711   -0.4612 C.ar      1 <0>        -0.1479
      7 C7          9.1810   -8.0135   -0.5937 C.2       1 <0>         0.3517
      8 O1          9.1784   -9.1502   -0.1620 O.2       1 <0>        -0.3719
      9 N1         10.2839   -7.5229   -1.1931 N.am      1 <0>        -0.4282
     10 N2          4.5769   -4.7931   -0.0867 N.am      1 <0>        -0.3247
     11 C8          4.7011   -3.4630    0.0918 C.2       1 <0>         0.3188
     12 O2          5.7997   -2.9709    0.2394 O.2       1 <0>        -0.3257
     13 C9          3.4748   -2.5872    0.1079 C.3       1 <0>        -0.3194
     14 S1          3.9682   -0.8607    0.3654 S.3       1 <0>         0.2581
     15 C10         2.4442    0.0236    0.3595 C.ar      1 <0>        -0.2110
     16 C11         1.2463   -0.6568    0.1803 C.ar      1 <0>        -0.1557
     17 C12         0.0517    0.0367    0.1739 C.ar      1 <0>        -0.1050
     18 C13         0.0437    1.4130    0.3459 C.ar      1 <0>         0.0114
     19 C14         1.2401    2.0965    0.5282 C.ar      1 <0>         0.0364
     20 C15         2.4394    1.4010    0.5336 C.ar      1 <0>        -0.1053
     21 O3          1.2511    3.4458    0.7071 O.3       1 <0>        -0.2017
     22 C16         0.0687    4.1560    0.3235 C.3       1 <0>        -0.0519
     23 C17        -1.1467    3.4021    0.8799 C.3       1 <0>        -0.0525
     24 O4         -1.1439    2.0804    0.3282 O.3       1 <0>        -0.2047
     25 H1          6.8276   -8.6876    0.5441 H         1 <0>         0.1603
     26 H2          4.8255   -7.2809    0.7627 H         1 <0>         0.1357
     27 H3          6.8500   -4.0741   -1.2218 H         1 <0>         0.1632
     28 H4          8.8606   -5.4693   -1.4371 H         1 <0>         0.1299
     29 H5         10.2860   -6.6161   -1.5375 H         1 <0>         0.2163
     30 H6         11.0756   -8.0766   -1.2801 H         1 <0>         0.2314
     31 H7          3.6958   -5.1967   -0.1282 H         1 <0>         0.2351
     32 H8          2.8149   -2.9009    0.9167 H         1 <0>         0.1228
     33 H9          2.9513   -2.6774   -0.8439 H         1 <0>         0.1232
     34 H10         1.2491   -1.7284    0.0456 H         1 <0>         0.1285
     35 H11        -0.8784   -0.4941    0.0343 H         1 <0>         0.1459
     36 H12         3.3702    1.9308    0.6724 H         1 <0>         0.1571
     37 H13         0.0958    5.1647    0.7357 H         1 <0>         0.1234
     38 H14         0.0056    4.2049   -0.7636 H         1 <0>         0.0957
     39 H15        -1.0802    3.3485    1.9666 H         1 <0>         0.0956
     40 H16        -2.0627    3.9181    0.5922 H         1 <0>         0.1226
@<TRIPOS>BOND
     1    1    6 ar
     2    1    2 ar
     3    1   25 1
     4    2    3 ar
     5    2   26 1
     6    3    4 ar
     7    3   10 1
     8    4    5 ar
     9    4   27 1
    10    5    6 ar
    11    5   28 1
    12    6    7 1
    13    7    8 2
    14    7    9 am
    15    9   29 1
    16    9   30 1
    17   10   11 am
    18   10   31 1
    19   11   12 2
    20   11   13 1
    21   13   14 1
    22   13   32 1
    23   13   33 1
    24   14   15 1
    25   15   20 ar
    26   15   16 ar
    27   16   17 ar
    28   16   34 1
    29   17   18 ar
    30   17   35 1
    31   18   24 1
    32   18   19 ar
    33   19   20 ar
    34   19   21 1
    35   20   36 1
    36   21   22 1
    37   22   23 1
    38   22   37 1
    39   22   38 1
    40   23   24 1
    41   23   39 1
    42   23   40 1
@<TRIPOS>MOLECULE
ZINC03605594
   40    41     0     0     0
SMALL
USER_CHARGES

@<TRIPOS>ATOM
      1 C1         -2.5116    3.7953    0.0788 C.3       1 <0>        -0.1745
      2 C2         -1.1965    3.0935   -0.1427 C.ar      1 <0>        -0.0631
      3 C3         -1.1668    1.7220   -0.3207 C.ar      1 <0>        -0.1306
      4 C4          0.0381    1.0731   -0.5190 C.ar      1 <0>        -0.1091
      5 C5          1.2155    1.7942   -0.5514 C.ar      1 <0>        -0.0591
      6 C6          1.1889    3.1727   -0.3786 C.ar      1 <0>        -0.2070
      7 C7         -0.0235    3.8208   -0.1738 C.ar      1 <0>        -0.1488
      8 S1          2.6886    4.0968   -0.4186 S.3       1 <0>         0.2527
      9 C8          2.1556    5.8102   -0.1526 C.3       1 <0>        -0.3227
     10 C9          3.3584    6.7180   -0.1641 C.2       1 <0>         0.3190
     11 O1          4.4661    6.2548   -0.3349 O.2       1 <0>        -0.3269
     12 N1          3.2031    8.0447    0.0155 N.am      1 <0>        -0.3251
     13 C10         4.3222    8.8705    0.1149 C.ar      1 <0>         0.0868
     14 C11         5.4843    8.3954    0.7146 C.ar      1 <0>        -0.1386
     15 C12         6.5926    9.2065    0.8100 C.ar      1 <0>        -0.0853
     16 C13         6.5460   10.5120    0.3134 C.ar      1 <0>        -0.1482
     17 C14         5.3754   10.9877   -0.2836 C.ar      1 <0>        -0.0464
     18 C15         4.2724   10.1696   -0.3806 C.ar      1 <0>        -0.1743
     19 C16         7.7306   11.3861    0.4186 C.2       1 <0>         0.3518
     20 O2          7.6887   12.5215   -0.0143 O.2       1 <0>        -0.3719
     21 N2          8.8588   10.9257    0.9946 N.am      1 <0>        -0.4283
     22 C17         2.5274    1.0869   -0.7742 C.3       1 <0>        -0.1781
     23 H1         -2.9330    4.0893   -0.8825 H         1 <0>         0.0871
     24 H2         -3.2016    3.1220    0.5874 H         1 <0>         0.0843
     25 H3         -2.3513    4.6822    0.6918 H         1 <0>         0.0785
     26 H4         -2.0865    1.1561   -0.3003 H         1 <0>         0.1317
     27 H5          0.0579    0.0017   -0.6532 H         1 <0>         0.1346
     28 H6         -0.0479    4.8922   -0.0396 H         1 <0>         0.1234
     29 H7          1.4703    6.1050   -0.9473 H         1 <0>         0.1225
     30 H8          1.6506    5.8882    0.8102 H         1 <0>         0.1226
     31 H9          2.3128    8.4250    0.0755 H         1 <0>         0.2350
     32 H10         5.5184    7.3878    1.1018 H         1 <0>         0.1631
     33 H11         7.4957    8.8358    1.2719 H         1 <0>         0.1297
     34 H12         5.3362   11.9960   -0.6687 H         1 <0>         0.1602
     35 H13         3.3676   10.5366   -0.8421 H         1 <0>         0.1356
     36 H14         8.8922   10.0199    1.3400 H         1 <0>         0.2163
     37 H15         9.6373   11.5002    1.0638 H         1 <0>         0.2313
     38 H16         2.7390    1.0418   -1.8425 H         1 <0>         0.0934
     39 H17         3.3245    1.6320   -0.2687 H         1 <0>         0.0949
     40 H18         2.4676    0.0753   -0.3727 H         1 <0>         0.0836
@<TRIPOS>BOND
     1    1    2 1
     2    1   23 1
     3    1   24 1
     4    1   25 1
     5    2    7 ar
     6    2    3 ar
     7    3    4 ar
     8    3   26 1
     9    4    5 ar
    10    4   27 1
    11    5    6 ar
    12    5   22 1
    13    6    7 ar
    14    6    8 1
    15    7   28 1
    16    8    9 1
    17    9   10 1
    18    9   29 1
    19    9   30 1
    20   10   11 2
    21   10   12 am
    22   12   13 1
    23   12   31 1
    24   13   18 ar
    25   13   14 ar
    26   14   15 ar
    27   14   32 1
    28   15   16 ar
    29   15   33 1
    30   16   17 ar
    31   16   19 1
    32   17   18 ar
    33   17   34 1
    34   18   35 1
    35   19   20 2
    36   19   21 am
    37   21   36 1
    38   21   37 1
    39   22   38 1
    40   22   39 1
    41   22   40 1
@<TRIPOS>MOLECULE
ZINC03605629
   40    41     0     0     0
SMALL
USER_CHARGES

@<TRIPOS>ATOM
      1 C1          2.0720   -0.7315   -6.1001 C.3       1 <0>        -0.1740
      2 C2          1.2698   -0.2108   -4.9355 C.ar      1 <0>        -0.0768
      3 C3          1.7570   -0.3437   -3.6477 C.ar      1 <0>        -0.1166
      4 C4          1.0246    0.1317   -2.5783 C.ar      1 <0>        -0.1444
      5 C5         -0.2035    0.7448   -2.7969 C.ar      1 <0>        -0.2163
      6 C6         -0.6922    0.8718   -4.0915 C.ar      1 <0>        -0.0498
      7 C7          0.0482    0.3982   -5.1568 C.ar      1 <0>        -0.1131
      8 C8         -2.0260    1.5302   -4.3332 C.3       1 <0>        -0.1789
      9 S1         -1.1418    1.3531   -1.4352 S.3       1 <0>         0.2512
     10 C9         -0.1211    0.9593    0.0118 C.3       1 <0>        -0.3222
     11 C10        -0.8175    1.4327    1.2616 C.2       1 <0>         0.3190
     12 O1         -1.8961    1.9816    1.1839 O.2       1 <0>        -0.3269
     13 N1         -0.2416    1.2460    2.4658 N.am      1 <0>        -0.3251
     14 C11        -0.8312    1.7800    3.6109 C.ar      1 <0>         0.0869
     15 C12        -1.5123    2.9912    3.5405 C.ar      1 <0>        -0.1386
     16 C13        -2.0998    3.5189    4.6683 C.ar      1 <0>        -0.0853
     17 C14        -2.0023    2.8419    5.8869 C.ar      1 <0>        -0.1483
     18 C15        -1.3129    1.6282    5.9552 C.ar      1 <0>        -0.0464
     19 C16        -0.7323    1.1034    4.8226 C.ar      1 <0>        -0.1743
     20 C17        -2.6264    3.4072    7.0991 C.2       1 <0>         0.3518
     21 O2         -2.5411    2.8169    8.1585 O.2       1 <0>        -0.3719
     22 N2         -3.2909    4.5779    7.0315 N.am      1 <0>        -0.4284
     23 H1          1.7960   -1.7673   -6.2973 H         1 <0>         0.0871
     24 H2          1.8658   -0.1262   -6.9829 H         1 <0>         0.0825
     25 H3          3.1344   -0.6774   -5.8626 H         1 <0>         0.0814
     26 H4          2.7113   -0.8202   -3.4786 H         1 <0>         0.1304
     27 H5          1.4053    0.0270   -1.5731 H         1 <0>         0.1225
     28 H6         -0.3293    0.4999   -6.1635 H         1 <0>         0.1354
     29 H7         -1.8818    2.6009   -4.4778 H         1 <0>         0.0931
     30 H8         -2.4866    1.1021   -5.2235 H         1 <0>         0.0842
     31 H9         -2.6745    1.3639   -3.4730 H         1 <0>         0.0961
     32 H10         0.0310   -0.1187    0.0667 H         1 <0>         0.1221
     33 H11         0.8439    1.4582   -0.0776 H         1 <0>         0.1227
     34 H12         0.5831    0.7400    2.5358 H         1 <0>         0.2350
     35 H13        -1.5837    3.5160    2.5993 H         1 <0>         0.1632
     36 H14        -2.6318    4.4571    4.6121 H         1 <0>         0.1297
     37 H15        -1.2361    1.1023    6.8954 H         1 <0>         0.1602
     38 H16        -0.1997    0.1653    4.8746 H         1 <0>         0.1356
     39 H17        -3.3589    5.0488    6.1862 H         1 <0>         0.2163
     40 H18        -3.7011    4.9494    7.8281 H         1 <0>         0.2313
@<TRIPOS>BOND
     1    1    2 1
     2    1   23 1
     3    1   24 1
     4    1   25 1
     5    2    7 ar
     6    2    3 ar
     7    3    4 ar
     8    3   26 1
     9    4    5 ar
    10    4   27 1
    11    5    6 ar
    12    5    9 1
    13    6    7 ar
    14    6    8 1
    15    7   28 1
    16    8   29 1
    17    8   30 1
    18    8   31 1
    19    9   10 1
    20   10   11 1
    21   10   32 1
    22   10   33 1
    23   11   12 2
    24   11   13 am
    25   13   14 1
    26   13   34 1
    27   14   19 ar
    28   14   15 ar
    29   15   16 ar
    30   15   35 1
    31   16   17 ar
    32   16   36 1
    33   17   18 ar
    34   17   20 1
    35   18   19 ar
    36   18   37 1
    37   19   38 1
    38   20   21 2
    39   20   22 am
    40   22   39 1
    41   22   40 1
@<TRIPOS>MOLECULE
ZINC03605753
   41    43     0     0     0
SMALL
USER_CHARGES

@<TRIPOS>ATOM
      1 C1          8.3255   10.3067    0.3710 C.3       1 <0>        -0.1760
      2 C2          7.0120    9.5680    0.3834 C.ar      1 <0>        -0.0631
      3 C3          6.2949    9.4154   -0.7891 C.ar      1 <0>        -0.1293
      4 C4          5.0907    8.7388   -0.7805 C.ar      1 <0>        -0.1100
      5 C5          4.6010    8.2116    0.4060 C.ar      1 <0>         0.0511
      6 C6          5.3198    8.3706    1.5817 C.ar      1 <0>        -0.0547
      7 C7          6.5263    9.0437    1.5667 C.ar      1 <0>        -0.1254
      8 C8          4.7876    7.8052    2.8733 C.3       1 <0>        -0.1795
      9 O1          3.4164    7.5454    0.4171 O.3       1 <0>        -0.1063
     10 C9          3.4437    6.1987    0.2868 C.ar      1 <0>         0.3018
     11 N1          4.6065    5.5589    0.2524 N.ar      1 <0>        -0.4017
     12 C10         4.6342    4.2357    0.1247 C.ar      1 <0>         0.3004
     13 N2          3.4971    3.5535    0.0316 N.ar      1 <0>        -0.3919
     14 C11         2.3336    4.1948    0.0661 C.ar      1 <0>         0.2967
     15 N3          2.3079    5.5187    0.1883 N.ar      1 <0>        -0.3553
     16 N4          1.1509    3.4866   -0.0307 N.pl3     1 <0>        -0.2593
     17 C12         1.1730    2.0929   -0.0550 C.ar      1 <0>         0.1020
     18 C13         0.2210    1.3964   -0.7929 C.ar      1 <0>        -0.1707
     19 C14         0.2398    0.0201   -0.8192 C.ar      1 <0>        -0.0691
     20 C15         1.2170   -0.6777   -0.1033 C.ar      1 <0>        -0.0416
     21 C16         2.1719    0.0254    0.6370 C.ar      1 <0>        -0.0749
     22 C17         2.1471    1.4017    0.6588 C.ar      1 <0>        -0.1334
     23 C18         1.2400   -2.1092   -0.1287 C.1       1 <0>        -0.0866
     24 N5          1.2582   -3.2449   -0.1488 N.1       1 <0>        -0.0438
     25 N6          5.8429    3.5707    0.0895 N.pl3     1 <0>        -0.3631
     26 H1          8.1483   11.3663    0.5554 H         1 <0>         0.0889
     27 H2          8.9750    9.9061    1.1494 H         1 <0>         0.0827
     28 H3          8.8034   10.1820   -0.6007 H         1 <0>         0.0831
     29 H4          6.6764    9.8260   -1.7123 H         1 <0>         0.1355
     30 H5          4.5307    8.6205   -1.6963 H         1 <0>         0.1424
     31 H6          7.0883    9.1642    2.4811 H         1 <0>         0.1361
     32 H7          5.1534    6.7865    3.0019 H         1 <0>         0.0924
     33 H8          5.1266    8.4209    3.7064 H         1 <0>         0.0826
     34 H9          3.6980    7.7992    2.8456 H         1 <0>         0.0952
     35 H10         0.3054    3.9592   -0.0817 H         1 <0>         0.2635
     36 H11        -0.5310    1.9363   -1.3493 H         1 <0>         0.1401
     37 H12        -0.4992   -0.5198   -1.3925 H         1 <0>         0.1438
     38 H13         2.9280   -0.5106    1.1915 H         1 <0>         0.1425
     39 H14         2.8845    1.9455    1.2305 H         1 <0>         0.1670
     40 H15         5.8629    2.6053   -0.0033 H         1 <0>         0.2427
     41 H16         6.6726    4.0686    0.1575 H         1 <0>         0.2452
@<TRIPOS>BOND
     1    1    2 1
     2    1   26 1
     3    1   27 1
     4    1   28 1
     5    2    7 ar
     6    2    3 ar
     7    3    4 ar
     8    3   29 1
     9    4    5 ar
    10    4   30 1
    11    5    6 ar
    12    5    9 1
    13    6    7 ar
    14    6    8 1
    15    7   31 1
    16    8   32 1
    17    8   33 1
    18    8   34 1
    19    9   10 1
    20   10   15 ar
    21   10   11 ar
    22   11   12 ar
    23   12   13 ar
    24   12   25 1
    25   13   14 ar
    26   14   15 ar
    27   14   16 1
    28   16   17 1
    29   16   35 1
    30   17   22 ar
    31   17   18 ar
    32   18   19 ar
    33   18   36 1
    34   19   20 ar
    35   19   37 1
    36   20   21 ar
    37   20   23 1
    38   21   22 ar
    39   21   38 1
    40   22   39 1
    41   23   24 3
    42   25   40 1
    43   25   41 1
@<TRIPOS>MOLECULE
ZINC03609966
   40    42     0     0     0
SMALL
USER_CHARGES

@<TRIPOS>ATOM
      1 C1         -5.1668   11.5745   -4.4876 C.3       1 <0>        -0.0615
      2 O1         -5.1746   11.7816   -3.0737 O.3       1 <0>        -0.2086
      3 C2         -5.3876   10.6906   -2.2914 C.ar      1 <0>         0.1174
      4 C3         -5.5849    9.4457   -2.8822 C.ar      1 <0>        -0.2298
      5 C4         -5.8002    8.3401   -2.1082 C.ar      1 <0>        -0.0411
      6 C5         -5.8223    8.4603   -0.7193 C.ar      1 <0>        -0.1348
      7 C6         -5.6277    9.7135   -0.1147 C.ar      1 <0>         0.0654
      8 C7         -5.4146   10.8283   -0.9153 C.ar      1 <0>        -0.1560
      9 O2         -5.6929    9.5291    1.2192 O.3       1 <0>        -0.0738
     10 C8         -5.9232    8.2372    1.5140 C.2       1 <0>        -0.0357
     11 C9         -6.0193    7.5170    0.3886 C.2       1 <0>        -0.1531
     12 C10        -6.2724    6.0353    0.2813 C.3       1 <0>        -0.1111
     13 C11        -4.9578    5.3088    0.1576 C.2       1 <0>         0.2966
     14 O3         -3.9179    5.9329    0.1566 O.2       1 <0>        -0.3327
     15 N1         -4.9378    3.9657    0.0480 N.am      1 <0>        -0.3318
     16 C12        -3.7206    3.2857    0.0298 C.ar      1 <0>         0.0845
     17 C13        -3.6161    2.0334    0.6271 C.ar      1 <0>        -0.1762
     18 C14        -2.4159    1.3592    0.6105 C.ar      1 <0>        -0.0482
     19 C15        -1.3019    1.9339   -0.0071 C.ar      1 <0>        -0.1495
     20 C16        -1.4089    3.1942   -0.6014 C.ar      1 <0>        -0.0877
     21 C17        -2.6134    3.8607   -0.5859 C.ar      1 <0>        -0.1391
     22 C18        -0.0134    1.2141   -0.0263 C.2       1 <0>         0.3519
     23 O4          0.0795    0.1199    0.4956 O.2       1 <0>        -0.3730
     24 N2          1.0586    1.7674   -0.6272 N.am      1 <0>        -0.4286
     25 H1         -4.9869   12.5235   -4.9928 H         1 <0>         0.1097
     26 H2         -4.3772   10.8693   -4.7472 H         1 <0>         0.0696
     27 H3         -6.1303   11.1728   -4.8013 H         1 <0>         0.0681
     28 H4         -5.5681    9.3531   -3.9581 H         1 <0>         0.1373
     29 H5         -5.9531    7.3763   -2.5710 H         1 <0>         0.1300
     30 H6         -5.2590   11.7973   -0.4646 H         1 <0>         0.1544
     31 H7         -6.0171    7.8382    2.5133 H         1 <0>         0.1985
     32 H8         -6.8831    5.8338   -0.5987 H         1 <0>         0.1109
     33 H9         -6.7955    5.6905    1.1733 H         1 <0>         0.1064
     34 H10        -5.7702    3.4720   -0.0182 H         1 <0>         0.2331
     35 H11        -4.4774    1.5900    1.1045 H         1 <0>         0.1345
     36 H12        -2.3356    0.3870    1.0740 H         1 <0>         0.1591
     37 H13        -0.5488    3.6429   -1.0760 H         1 <0>         0.1288
     38 H14        -2.6979    4.8329   -1.0486 H         1 <0>         0.1693
     39 H15         1.9043    1.2926   -0.6433 H         1 <0>         0.2308
     40 H16         0.9845    2.6403   -1.0436 H         1 <0>         0.2163
@<TRIPOS>BOND
     1    1    2 1
     2    1   25 1
     3    1   26 1
     4    1   27 1
     5    2    3 1
     6    3    8 ar
     7    3    4 ar
     8    4    5 ar
     9    4   28 1
    10    5    6 ar
    11    5   29 1
    12    6   11 1
    13    6    7 ar
    14    7    8 ar
    15    7    9 1
    16    8   30 1
    17    9   10 1
    18   10   11 2
    19   10   31 1
    20   11   12 1
    21   12   13 1
    22   12   32 1
    23   12   33 1
    24   13   14 2
    25   13   15 am
    26   15   16 1
    27   15   34 1
    28   16   21 ar
    29   16   17 ar
    30   17   18 ar
    31   17   35 1
    32   18   19 ar
    33   18   36 1
    34   19   20 ar
    35   19   22 1
    36   20   21 ar
    37   20   37 1
    38   21   38 1
    39   22   23 2
    40   22   24 am
    41   24   39 1
    42   24   40 1
@<TRIPOS>MOLECULE
ZINC03611421
   42    44     0     0     0
SMALL
USER_CHARGES

@<TRIPOS>ATOM
      1 C1          3.7016    5.7650   -1.4635 C.3       1 <0>        -0.2533
      2 C2          2.4321    4.9530   -1.4521 C.2       1 <0>         0.2655
      3 O1          1.4538    5.3490   -2.0490 O.2       1 <0>        -0.2813
      4 C3          2.3799    3.6793   -0.7165 C.ar      1 <0>        -0.1431
      5 C4          3.5067    3.2199   -0.0265 C.ar      1 <0>        -0.1082
      6 C5          3.4537    2.0261    0.6619 C.ar      1 <0>        -0.1261
      7 C6          2.2878    1.2824    0.6782 C.ar      1 <0>        -0.1343
      8 C7          1.1638    1.7262   -0.0085 C.ar      1 <0>         0.0453
      9 C8          1.2042    2.9240   -0.7040 C.ar      1 <0>        -0.0675
     10 N1         -0.0111    0.9658    0.0074 N.am      1 <0>        -0.3267
     11 C9         -1.2109    1.5796    0.0176 C.2       1 <0>         0.2972
     12 O2         -1.2748    2.7879   -0.0664 O.2       1 <0>        -0.3561
     13 C10        -2.4732    0.7646    0.1334 C.3       1 <0>        -0.1699
     14 C11        -3.6857    1.6977    0.1212 C.3       1 <0>        -0.1083
     15 C12        -4.9480    0.8827    0.2370 C.2       1 <0>         0.1289
     16 N2         -6.1389    1.5366    0.2439 N.am      1 <0>        -0.3096
     17 H1         -6.1569    2.5339    0.1733 H         1 <0>         0.2548
     18 C13        -7.3011    0.8504    0.3454 C.2       1 <0>         0.3448
     19 O3         -8.3751    1.4233    0.3524 O.2       1 <0>        -0.3437
     20 C14        -7.2158   -0.6141    0.4463 C.ar      1 <0>        -0.1867
     21 C15        -8.3524   -1.4129    0.5542 C.ar      1 <0>        -0.0494
     22 C16        -8.2145   -2.7806    0.6455 C.ar      1 <0>        -0.1545
     23 C17        -6.9553   -3.3662    0.6302 C.ar      1 <0>        -0.0908
     24 C18        -5.8200   -2.5949    0.5242 C.ar      1 <0>        -0.1247
     25 C19        -5.9336   -1.2062    0.4309 C.ar      1 <0>         0.0581
     26 N3         -4.8419   -0.4086    0.3197 N.2       1 <0>        -0.2376
     27 H2          4.2684    5.4865   -2.2388 H         1 <0>         0.0982
     28 H3          3.4554    6.8229   -1.5549 H         1 <0>         0.1076
     29 H4          4.2481    5.5979   -0.5354 H         1 <0>         0.0892
     30 H5          4.4177    3.8000   -0.0327 H         1 <0>         0.1348
     31 H6          4.3246    1.6729    1.1941 H         1 <0>         0.1350
     32 H7          2.2518    0.3508    1.2234 H         1 <0>         0.1317
     33 H8          0.3305    3.2723   -1.2348 H         1 <0>         0.1855
     34 H9          0.0381   -0.0029    0.0069 H         1 <0>         0.2354
     35 H10        -2.5380    0.0737   -0.7072 H         1 <0>         0.1217
     36 H11        -2.4577    0.2012    1.0663 H         1 <0>         0.1222
     37 H12        -3.6209    2.3886    0.9618 H         1 <0>         0.1220
     38 H13        -3.7012    2.2611   -0.8118 H         1 <0>         0.1224
     39 H14        -9.3342   -0.9632    0.5666 H         1 <0>         0.1548
     40 H15        -9.0933   -3.4028    0.7292 H         1 <0>         0.1366
     41 H16        -6.8656   -4.4400    0.7026 H         1 <0>         0.1342
     42 H17        -4.8460   -3.0615    0.5130 H         1 <0>         0.1458
@<TRIPOS>BOND
     1    1    2 1
     2    1   27 1
     3    1   28 1
     4    1   29 1
     5    2    3 2
     6    2    4 1
     7    4    9 ar
     8    4    5 ar
     9    5    6 ar
    10    5   30 1
    11    6    7 ar
    12    6   31 1
    13    7    8 ar
    14    7   32 1
    15    8    9 ar
    16    8   10 1
    17    9   33 1
    18   10   11 am
    19   10   34 1
    20   11   12 2
    21   11   13 1
    22   13   14 1
    23   13   35 1
    24   13   36 1
    25   14   15 1
    26   14   37 1
    27   14   38 1
    28   15   26 2
    29   15   16 1
    30   16   17 1
    31   16   18 am
    32   18   19 2
    33   18   20 1
    34   20   25 ar
    35   20   21 ar
    36   21   22 ar
    37   21   39 1
    38   22   23 ar
    39   22   40 1
    40   23   24 ar
    41   23   41 1
    42   24   25 ar
    43   24   42 1
    44   25   26 1
@<TRIPOS>MOLECULE
ZINC03611421
   42    44     0     0     0
SMALL
USER_CHARGES

@<TRIPOS>ATOM
      1 C1          3.7019    5.7656   -1.4599 C.3       1 <0>        -0.2529
      2 C2          2.4324    4.9536   -1.4489 C.2       1 <0>         0.2641
      3 O1          1.4542    5.3498   -2.0459 O.2       1 <0>        -0.2773
      4 C3          2.3801    3.6796   -0.7137 C.ar      1 <0>        -0.1406
      5 C4          3.5068    3.2200   -0.0237 C.ar      1 <0>        -0.1051
      6 C5          3.4537    2.0260    0.6643 C.ar      1 <0>        -0.1253
      7 C6          2.2878    1.2823    0.6802 C.ar      1 <0>        -0.1334
      8 C7          1.1639    1.7263   -0.0065 C.ar      1 <0>         0.0415
      9 C8          1.2044    2.9243   -0.7017 C.ar      1 <0>        -0.0664
     10 N1         -0.0110    0.9659    0.0089 N.am      1 <0>        -0.3273
     11 C9         -1.2108    1.5797    0.0192 C.2       1 <0>         0.3043
     12 O2         -1.2747    2.7880   -0.0645 O.2       1 <0>        -0.3318
     13 C10        -2.4731    0.7647    0.1345 C.3       1 <0>        -0.2129
     14 C11        -3.6856    1.6978    0.1224 C.3       1 <0>        -0.1113
     15 C12        -4.9480    0.8828    0.2378 C.2       1 <0>         0.1494
     16 N2         -6.1389    1.5367    0.2447 N.2       1 <0>        -0.2967
     17 H1         -3.9329   -0.8252    0.3064 H         1 <0>         0.2436
     18 C13        -7.3011    0.8504    0.3458 C.2       1 <0>         0.3157
     19 O3         -8.3751    1.4233    0.3529 O.2       1 <0>        -0.3071
     20 C14        -7.2153   -0.6132    0.4582 C.ar      1 <0>        -0.1903
     21 C15        -8.3516   -1.4116    0.5723 C.ar      1 <0>        -0.0368
     22 C16        -8.2134   -2.7789    0.6692 C.ar      1 <0>        -0.1617
     23 C17        -6.9542   -3.3645    0.6534 C.ar      1 <0>        -0.0752
     24 C18        -5.8192   -2.5936    0.5414 C.ar      1 <0>        -0.1847
     25 C19        -5.9331   -1.2054    0.4423 C.ar      1 <0>         0.0598
     26 N3         -4.8416   -0.4082    0.3255 N.pl3     1 <0>        -0.2236
     27 H2          4.2689    5.4873   -2.2352 H         1 <0>         0.0984
     28 H3          3.4557    6.8235   -1.5510 H         1 <0>         0.1093
     29 H4          4.2483    5.5982   -0.5318 H         1 <0>         0.0890
     30 H5          4.4178    3.8001   -0.0296 H         1 <0>         0.1367
     31 H6          4.3245    1.6726    1.1965 H         1 <0>         0.1363
     32 H7          2.2517    0.3505    1.2251 H         1 <0>         0.1305
     33 H8          0.3308    3.2728   -1.2325 H         1 <0>         0.1861
     34 H9          0.0382   -0.0028    0.0081 H         1 <0>         0.2310
     35 H10        -2.5378    0.0740   -0.7063 H         1 <0>         0.1014
     36 H11        -2.4578    0.2010    1.0673 H         1 <0>         0.1024
     37 H12        -3.6210    2.3884    0.9633 H         1 <0>         0.1475
     38 H13        -3.7010    2.2615   -0.8104 H         1 <0>         0.1476
     39 H14        -9.3333   -0.9618    0.5850 H         1 <0>         0.1633
     40 H15        -9.0920   -3.4007    0.7577 H         1 <0>         0.1385
     41 H16        -6.8643   -4.4380    0.7302 H         1 <0>         0.1350
     42 H17        -4.8452   -3.0603    0.5299 H         1 <0>         0.1289
@<TRIPOS>BOND
     1    1    2 1
     2    1   27 1
     3    1   28 1
     4    1   29 1
     5    2    3 2
     6    2    4 1
     7    4    9 ar
     8    4    5 ar
     9    5    6 ar
    10    5   30 1
    11    6    7 ar
    12    6   31 1
    13    7    8 ar
    14    7   32 1
    15    8    9 ar
    16    8   10 1
    17    9   33 1
    18   10   11 am
    19   10   34 1
    20   11   12 2
    21   11   13 1
    22   13   14 1
    23   13   35 1
    24   13   36 1
    25   14   15 1
    26   14   37 1
    27   14   38 1
    28   15   26 1
    29   15   16 2
    30   16   18 1
    31   17   26 1
    32   18   19 2
    33   18   20 1
    34   20   21 ar
    35   20   25 ar
    36   21   22 ar
    37   21   39 1
    38   22   23 ar
    39   22   40 1
    40   23   24 ar
    41   23   41 1
    42   24   25 ar
    43   24   42 1
    44   25   26 1
@<TRIPOS>MOLECULE
ZINC03611421
   42    44     0     0     0
SMALL
USER_CHARGES

@<TRIPOS>ATOM
      1 C1          3.7021    5.7653   -1.4595 C.3       1 <0>        -0.2535
      2 C2          2.4326    4.9533   -1.4486 C.2       1 <0>         0.2650
      3 O1          1.4545    5.3493   -2.0458 O.2       1 <0>        -0.2801
      4 C3          2.3802    3.6796   -0.7130 C.ar      1 <0>        -0.1432
      5 C4          3.5068    3.2202   -0.0226 C.ar      1 <0>        -0.1106
      6 C5          3.4536    2.0264    0.6657 C.ar      1 <0>        -0.1270
      7 C6          2.2877    1.2826    0.6816 C.ar      1 <0>        -0.1366
      8 C7          1.1639    1.7264   -0.0055 C.ar      1 <0>         0.0483
      9 C8          1.2045    2.9242   -0.7010 C.ar      1 <0>        -0.0674
     10 N1         -0.0110    0.9660    0.0100 N.am      1 <0>        -0.3303
     11 C9         -1.2108    1.5798    0.0198 C.2       1 <0>         0.2966
     12 O2         -1.2747    2.7881   -0.0642 O.2       1 <0>        -0.3511
     13 C10        -2.4731    0.7647    0.1351 C.3       1 <0>        -0.1768
     14 C11        -3.6856    1.6978    0.1225 C.3       1 <0>        -0.0794
     15 C12        -4.9480    0.8828    0.2378 C.ar      1 <0>         0.1181
     16 N2         -6.1383    1.5374    0.2557 N.ar      1 <0>        -0.2807
     17 H1         -9.1101    0.7523    0.4515 H         1 <0>         0.2708
     18 C13        -7.3005    0.8513    0.3578 C.ar      1 <0>         0.2360
     19 O3         -8.3742    1.4246    0.3708 O.3       1 <0>        -0.1591
     20 C14        -7.2161   -0.6144    0.4403 C.ar      1 <0>        -0.2530
     21 C15        -8.3530   -1.4136    0.5420 C.ar      1 <0>        -0.1045
     22 C16        -8.2157   -2.7821    0.6212 C.ar      1 <0>        -0.1355
     23 C17        -6.9568   -3.3681    0.6007 C.ar      1 <0>        -0.0959
     24 C18        -5.8209   -2.5960    0.5071 C.ar      1 <0>        -0.1133
     25 C19        -5.9342   -1.2069    0.4196 C.ar      1 <0>         0.0930
     26 N3         -4.8421   -0.4089    0.3151 N.ar      1 <0>        -0.2673
     27 H2          4.2692    5.4868   -2.2347 H         1 <0>         0.0973
     28 H3          3.4559    6.8232   -1.5510 H         1 <0>         0.1069
     29 H4          4.2483    5.5982   -0.5312 H         1 <0>         0.0889
     30 H5          4.4178    3.8003   -0.0285 H         1 <0>         0.1334
     31 H6          4.3243    1.6732    1.1982 H         1 <0>         0.1333
     32 H7          2.2515    0.3510    1.2268 H         1 <0>         0.1307
     33 H8          0.3310    3.2725   -1.2321 H         1 <0>         0.1871
     34 H9          0.0382   -0.0027    0.0095 H         1 <0>         0.2337
     35 H10        -2.5376    0.0738   -0.7055 H         1 <0>         0.1163
     36 H11        -2.4579    0.2013    1.0680 H         1 <0>         0.1166
     37 H12        -3.6212    2.3887    0.9631 H         1 <0>         0.1268
     38 H13        -3.7008    2.2612   -0.8105 H         1 <0>         0.1270
     39 H14        -9.3346   -0.9635    0.5588 H         1 <0>         0.1163
     40 H15        -9.0948   -3.4046    0.6998 H         1 <0>         0.1351
     41 H16        -6.8676   -4.4425    0.6639 H         1 <0>         0.1369
     42 H17        -4.8469   -3.0626    0.4965 H         1 <0>         0.1512
@<TRIPOS>BOND
     1    1    2 1
     2    1   27 1
     3    1   28 1
     4    1   29 1
     5    2    3 2
     6    2    4 1
     7    4    9 ar
     8    4    5 ar
     9    5    6 ar
    10    5   30 1
    11    6    7 ar
    12    6   31 1
    13    7    8 ar
    14    7   32 1
    15    8    9 ar
    16    8   10 1
    17    9   33 1
    18   10   11 am
    19   10   34 1
    20   11   12 2
    21   11   13 1
    22   13   14 1
    23   13   35 1
    24   13   36 1
    25   14   15 1
    26   14   37 1
    27   14   38 1
    28   15   26 ar
    29   15   16 ar
    30   16   18 ar
    31   17   19 1
    32   18   19 1
    33   18   20 ar
    34   20   21 ar
    35   20   25 ar
    36   21   22 ar
    37   21   39 1
    38   22   23 ar
    39   22   40 1
    40   23   24 ar
    41   23   41 1
    42   24   25 ar
    43   24   42 1
    44   25   26 ar
@<TRIPOS>MOLECULE
ZINC03612561
   44    45     0     0     0
SMALL
USER_CHARGES

@<TRIPOS>ATOM
      1 C1          5.3395   -0.4065    2.9192 C.3       1 <0>        -0.0355
      2 N1          4.3751    0.0099    1.8979 N.am      1 <0>        -0.3804
      3 C2          3.0998   -0.4216    1.9596 C.2       1 <0>         0.4041
      4 O1          2.7498   -1.1559    2.8623 O.2       1 <0>        -0.4212
      5 O2          2.2135   -0.0390    1.0211 O.3       1 <0>        -0.2849
      6 C3          0.8577   -0.5421    1.1507 C.3       1 <0>         0.0261
      7 C4          0.0021   -0.0041    0.0020 C.3       1 <0>         0.0202
      8 C5          0.5918   -0.4650   -1.3324 C.3       1 <0>         0.0290
      9 O3          0.6075   -1.9161   -1.3792 O.3       1 <0>        -0.2784
     10 C6          1.0999   -2.4864   -2.4950 C.2       1 <0>         0.4067
     11 O4          1.5054   -1.7905   -3.4048 O.2       1 <0>        -0.4237
     12 N2          1.1430   -3.8292   -2.6028 N.am      1 <0>        -0.4143
     13 C7         -0.0142    1.5021    0.0506 C.ar      1 <0>        -0.0802
     14 C8         -1.1896    2.1717    0.3351 C.ar      1 <0>        -0.1158
     15 C9         -1.2035    3.5531    0.3845 C.ar      1 <0>        -0.1308
     16 C10        -0.0443    4.2652    0.1393 C.ar      1 <0>        -0.1220
     17 C11         1.1298    3.5957   -0.1509 C.ar      1 <0>        -0.1323
     18 C12         1.1449    2.2141   -0.1951 C.ar      1 <0>        -0.1063
     19 C13        -1.4051   -0.5263    0.1365 C.ar      1 <0>        -0.0657
     20 C14        -1.7698   -1.2497    1.2565 C.ar      1 <0>        -0.1257
     21 C15        -3.0620   -1.7246    1.3821 C.ar      1 <0>        -0.1242
     22 C16        -3.9867   -1.4846    0.3830 C.ar      1 <0>        -0.1274
     23 C17        -3.6204   -0.7661   -0.7397 C.ar      1 <0>        -0.1266
     24 C18        -2.3297   -0.2867   -0.8628 C.ar      1 <0>        -0.1182
     25 H1          4.9965   -0.0751    3.8993 H         1 <0>         0.0874
     26 H2          5.4284   -1.4928    2.9135 H         1 <0>         0.0871
     27 H3          6.3110    0.0387    2.7045 H         1 <0>         0.0800
     28 H4          4.6545    0.5960    1.1773 H         1 <0>         0.2297
     29 H5          0.4376   -0.2138    2.1013 H         1 <0>         0.1011
     30 H6          0.8695   -1.6315    1.1155 H         1 <0>         0.1096
     31 H7         -0.0178   -0.0816   -2.1507 H         1 <0>         0.0997
     32 H8          1.6096   -0.0872   -1.4297 H         1 <0>         0.1071
     33 H9          0.8193   -4.3847   -1.8765 H         1 <0>         0.2248
     34 H10         1.4978   -4.2400   -3.4067 H         1 <0>         0.2522
     35 H11        -2.0962    1.6155    0.5226 H         1 <0>         0.1447
     36 H12        -2.1209    4.0762    0.6108 H         1 <0>         0.1309
     37 H13        -0.0560    5.3445    0.1741 H         1 <0>         0.1288
     38 H14         2.0354    4.1520   -0.3428 H         1 <0>         0.1296
     39 H15         2.0621    1.6911   -0.4218 H         1 <0>         0.1431
     40 H16        -1.0462   -1.4407    2.0352 H         1 <0>         0.1400
     41 H17        -3.3480   -2.2863    2.2591 H         1 <0>         0.1322
     42 H18        -4.9952   -1.8588    0.4794 H         1 <0>         0.1301
     43 H19        -4.3428   -0.5789   -1.5204 H         1 <0>         0.1321
     44 H20        -2.0436    0.2747   -1.7399 H         1 <0>         0.1373
@<TRIPOS>BOND
     1    1    2 1
     2    1   25 1
     3    1   26 1
     4    1   27 1
     5    2    3 am
     6    2   28 1
     7    3    4 2
     8    3    5 1
     9    5    6 1
    10    6    7 1
    11    6   29 1
    12    6   30 1
    13    7    8 1
    14    7   13 1
    15    7   19 1
    16    8    9 1
    17    8   31 1
    18    8   32 1
    19    9   10 1
    20   10   11 2
    21   10   12 am
    22   12   33 1
    23   12   34 1
    24   13   18 ar
    25   13   14 ar
    26   14   15 ar
    27   14   35 1
    28   15   16 ar
    29   15   36 1
    30   16   17 ar
    31   16   37 1
    32   17   18 ar
    33   17   38 1
    34   18   39 1
    35   19   24 ar
    36   19   20 ar
    37   20   21 ar
    38   20   40 1
    39   21   22 ar
    40   21   41 1
    41   22   23 ar
    42   22   42 1
    43   23   24 ar
    44   23   43 1
    45   24   44 1
@<TRIPOS>MOLECULE
ZINC03612639
   41    42     0     0     0
SMALL
USER_CHARGES

@<TRIPOS>ATOM
      1 C1          3.5005    2.2296   -0.1288 C.3       1 <0>        -0.1683
      2 C2          2.2558    1.4104    0.0958 C.2       1 <0>         0.0624
      3 C3          2.3475    0.0553    0.2326 C.2       1 <0>        -0.3040
      4 C4          1.1726   -0.6882    0.4410 C.2       1 <0>         0.3296
      5 O1          1.2186   -1.9008    0.5677 O.2       1 <0>        -0.3612
      6 N1         -0.0074   -0.0346    0.4986 N.am      1 <0>        -0.2697
      7 H1         -0.8559   -0.5429    0.6460 H         1 <0>         0.2592
      8 C5         -0.0379    1.3193    0.3553 C.2       1 <0>        -0.0136
      9 N2          1.0694    2.0093    0.1601 N.2       1 <0>        -0.2741
     10 S1         -1.5832    2.1631    0.4245 S.3       1 <0>         0.3110
     11 C6         -1.0223    3.8668    0.1819 C.3       1 <0>        -0.2443
     12 H2         -0.2661    4.1100    0.9283 H         1 <0>         0.1395
     13 C7         -0.4223    4.0117   -1.2181 C.3       1 <0>        -0.2124
     14 C8         -2.1917    4.8061    0.3269 C.2       1 <0>         0.3168
     15 O2         -3.3238    4.3880    0.2073 O.2       1 <0>        -0.3342
     16 N3         -1.9795    6.1109    0.5896 N.am      1 <0>        -0.3185
     17 C9         -3.0527    7.0004    0.6149 C.ar      1 <0>         0.0908
     18 C10        -4.1327    6.8095   -0.2414 C.ar      1 <0>        -0.1473
     19 C11        -5.1962    7.6830   -0.2158 C.ar      1 <0>        -0.0581
     20 C12        -5.1855    8.7691    0.6646 C.ar      1 <0>        -0.1311
     21 C13        -4.0962    8.9607    1.5198 C.ar      1 <0>        -0.0455
     22 C14        -3.0386    8.0802    1.4924 C.ar      1 <0>        -0.1782
     23 C15        -6.3206    9.7100    0.6913 C.2       1 <0>         0.3510
     24 O3         -6.3100   10.6531    1.4573 O.2       1 <0>        -0.3635
     25 O4         -7.3697    9.5237   -0.1337 O.3       1 <0>        -0.2672
     26 C16        -8.4513   10.4890   -0.0528 C.3       1 <0>        -0.0507
     27 H3          3.6897    2.3171   -1.1987 H         1 <0>         0.0983
     28 H4          3.3637    3.2231    0.2984 H         1 <0>         0.0957
     29 H5          4.3485    1.7413    0.3513 H         1 <0>         0.0947
     30 H6          3.3071   -0.4377    0.1812 H         1 <0>         0.1693
     31 H7         -0.0845    5.0377   -1.3641 H         1 <0>         0.0820
     32 H8          0.4236    3.3323   -1.3230 H         1 <0>         0.1240
     33 H9         -1.1785    3.7684   -1.9644 H         1 <0>         0.0952
     34 H10        -1.0800    6.4310    0.7611 H         1 <0>         0.2385
     35 H11        -4.1382    5.9729   -0.9243 H         1 <0>         0.1637
     36 H12        -6.0360    7.5320   -0.8778 H         1 <0>         0.1545
     37 H13        -4.0848    9.7984    2.2014 H         1 <0>         0.1588
     38 H14        -2.1970    8.2274    2.1531 H         1 <0>         0.1375
     39 H15        -9.2298   10.2231   -0.7679 H         1 <0>         0.1033
     40 H16        -8.8669   10.4855    0.9548 H         1 <0>         0.0835
     41 H17        -8.0692   11.4832   -0.2848 H         1 <0>         0.0824
@<TRIPOS>BOND
     1    1    2 1
     2    1   27 1
     3    1   28 1
     4    1   29 1
     5    2    9 1
     6    2    3 2
     7    3    4 1
     8    3   30 1
     9    4    5 2
    10    4    6 am
    11    6    7 1
    12    6    8 1
    13    8    9 2
    14    8   10 1
    15   10   11 1
    16   11   12 1
    17   11   13 1
    18   11   14 1
    19   13   31 1
    20   13   32 1
    21   13   33 1
    22   14   15 2
    23   14   16 am
    24   16   17 1
    25   16   34 1
    26   17   22 ar
    27   17   18 ar
    28   18   19 ar
    29   18   35 1
    30   19   20 ar
    31   19   36 1
    32   20   21 ar
    33   20   23 1
    34   21   22 ar
    35   21   37 1
    36   22   38 1
    37   23   24 2
    38   23   25 1
    39   25   26 1
    40   26   39 1
    41   26   40 1
    42   26   41 1
@<TRIPOS>MOLECULE
ZINC03612639
   41    42     0     0     0
SMALL
USER_CHARGES

@<TRIPOS>ATOM
      1 C1          3.5021    2.2313   -0.1134 C.3       1 <0>        -0.1724
      2 C2          2.2569    1.4115    0.1057 C.ar      1 <0>         0.1016
      3 C3          2.3486    0.0564    0.2431 C.ar      1 <0>        -0.4055
      4 C4          1.1727   -0.6881    0.4416 C.ar      1 <0>         0.2344
      5 O1          1.2187   -1.9007    0.5683 O.3       1 <0>        -0.1693
      6 N1         -0.0073   -0.0345    0.4992 N.ar      1 <0>        -0.2499
      7 H1          2.1679   -2.2074    0.4981 H         1 <0>         0.2670
      8 C5         -0.0379    1.3193    0.3553 C.ar      1 <0>        -0.0372
      9 N2          1.0699    2.0098    0.1650 N.ar      1 <0>        -0.2919
     10 S1         -1.5832    2.1631    0.4245 S.3       1 <0>         0.3708
     11 C6         -1.0223    3.8668    0.1819 C.3       1 <0>        -0.2672
     12 H2         -0.2661    4.1100    0.9283 H         1 <0>         0.1339
     13 C7         -0.4223    4.0117   -1.2181 C.3       1 <0>        -0.2090
     14 C8         -2.1917    4.8061    0.3269 C.2       1 <0>         0.3186
     15 O2         -3.3238    4.3880    0.2073 O.2       1 <0>        -0.3334
     16 N3         -1.9795    6.1109    0.5896 N.am      1 <0>        -0.3215
     17 C9         -3.0527    7.0004    0.6149 C.ar      1 <0>         0.0947
     18 C10        -4.1327    6.8095   -0.2414 C.ar      1 <0>        -0.1479
     19 C11        -5.1962    7.6830   -0.2158 C.ar      1 <0>        -0.0580
     20 C12        -5.1855    8.7691    0.6646 C.ar      1 <0>        -0.1342
     21 C13        -4.0962    8.9607    1.5198 C.ar      1 <0>        -0.0457
     22 C14        -3.0386    8.0802    1.4924 C.ar      1 <0>        -0.1807
     23 C15        -6.3206    9.7100    0.6913 C.2       1 <0>         0.3516
     24 O3         -6.3100   10.6531    1.4573 O.2       1 <0>        -0.3655
     25 O4         -7.3697    9.5237   -0.1337 O.3       1 <0>        -0.2671
     26 C16        -8.4513   10.4890   -0.0528 C.3       1 <0>        -0.0506
     27 H3          3.6959    2.3190   -1.1825 H         1 <0>         0.0987
     28 H4          3.3630    3.2247    0.3133 H         1 <0>         0.1006
     29 H5          4.3483    1.7433    0.3703 H         1 <0>         0.0886
     30 H6          3.3087   -0.4361    0.1961 H         1 <0>         0.1400
     31 H7         -0.0845    5.0377   -1.3641 H         1 <0>         0.0750
     32 H8          0.4236    3.3323   -1.3230 H         1 <0>         0.1203
     33 H9         -1.1785    3.7684   -1.9644 H         1 <0>         0.0938
     34 H10        -1.0800    6.4310    0.7611 H         1 <0>         0.2373
     35 H11        -4.1382    5.9729   -0.9243 H         1 <0>         0.1649
     36 H12        -6.0360    7.5320   -0.8778 H         1 <0>         0.1535
     37 H13        -4.0848    9.7984    2.2014 H         1 <0>         0.1573
     38 H14        -2.1970    8.2274    2.1531 H         1 <0>         0.1367
     39 H15        -9.2298   10.2231   -0.7679 H         1 <0>         0.1027
     40 H16        -8.8669   10.4855    0.9548 H         1 <0>         0.0831
     41 H17        -8.0692   11.4832   -0.2848 H         1 <0>         0.0817
@<TRIPOS>BOND
     1    1    2 1
     2    1   27 1
     3    1   28 1
     4    1   29 1
     5    2    3 ar
     6    2    9 ar
     7    3   30 1
     8    3    4 ar
     9    4    6 ar
    10    4    5 1
    11    5    7 1
    12    6    8 ar
    13    8   10 1
    14    8    9 ar
    15   10   11 1
    16   11   12 1
    17   11   13 1
    18   11   14 1
    19   13   31 1
    20   13   32 1
    21   13   33 1
    22   14   15 2
    23   14   16 am
    24   16   17 1
    25   16   34 1
    26   17   22 ar
    27   17   18 ar
    28   18   19 ar
    29   18   35 1
    30   19   20 ar
    31   19   36 1
    32   20   21 ar
    33   20   23 1
    34   21   22 ar
    35   21   37 1
    36   22   38 1
    37   23   24 2
    38   23   25 1
    39   25   26 1
    40   26   39 1
    41   26   40 1
    42   26   41 1
@<TRIPOS>MOLECULE
ZINC03612643
   41    42     0     0     0
SMALL
USER_CHARGES

@<TRIPOS>ATOM
      1 C1          0.8746   -8.7800   -0.7946 C.3       1 <0>        -0.1698
      2 C2          2.2267   -8.3349   -0.3000 C.2       1 <0>         0.0630
      3 C3          3.1639   -9.2638    0.0496 C.2       1 <0>        -0.3047
      4 C4          4.4181   -8.8249    0.5087 C.2       1 <0>         0.3296
      5 O1          5.2786   -9.6281    0.8298 O.2       1 <0>        -0.3614
      6 N1          4.6540   -7.4975    0.5829 N.am      1 <0>        -0.2696
      7 H1          5.5415   -7.1624    0.8993 H         1 <0>         0.2591
      8 C5          3.6789   -6.6167    0.2252 C.2       1 <0>        -0.0124
      9 N2          2.5047   -7.0372   -0.2046 N.2       1 <0>        -0.2728
     10 S1          3.9934   -4.8862    0.3312 S.3       1 <0>         0.3054
     11 C6          2.4072   -4.2419   -0.2561 C.3       1 <0>        -0.2421
     12 H2          1.6001   -4.6590    0.3462 H         1 <0>         0.1375
     13 C7          2.2071   -4.6369   -1.7207 C.3       1 <0>        -0.2114
     14 C8          2.3995   -2.7398   -0.1355 C.2       1 <0>         0.3175
     15 O2          3.4451   -2.1255   -0.1427 O.2       1 <0>        -0.3364
     16 N3          1.2305   -2.0790   -0.0195 N.am      1 <0>        -0.3181
     17 C9          1.2163   -0.6851   -0.0041 C.ar      1 <0>         0.0867
     18 C10         0.1628    0.0049   -0.5959 C.ar      1 <0>        -0.1773
     19 C11         0.1450    1.3811   -0.5818 C.ar      1 <0>        -0.0474
     20 C12         1.1873    2.0858    0.0278 C.ar      1 <0>        -0.1298
     21 C13         2.2442    1.3893    0.6215 C.ar      1 <0>        -0.0602
     22 C14         2.2554    0.0130    0.6036 C.ar      1 <0>        -0.1458
     23 C15         1.1720    3.5603    0.0445 C.2       1 <0>         0.3508
     24 O3          0.2528    4.1642   -0.4719 O.2       1 <0>        -0.3636
     25 O4          2.1775    4.2379    0.6325 O.3       1 <0>        -0.2670
     26 C16         2.0965    5.6874    0.6111 C.3       1 <0>        -0.0507
     27 H3          0.2653   -7.9055   -1.0230 H         1 <0>         0.0948
     28 H4          0.9972   -9.3825   -1.6946 H         1 <0>         0.0977
     29 H5          0.3833   -9.3739   -0.0239 H         1 <0>         0.0979
     30 H6          2.9456  -10.3189   -0.0256 H         1 <0>         0.1695
     31 H7          3.0141   -4.2199   -2.3230 H         1 <0>         0.0983
     32 H8          2.2127   -5.7234   -1.8079 H         1 <0>         0.1226
     33 H9          1.2519   -4.2489   -2.0744 H         1 <0>         0.0824
     34 H10         0.3991   -2.5734    0.0533 H         1 <0>         0.2385
     35 H11        -0.6421   -0.5401   -1.0666 H         1 <0>         0.1369
     36 H12        -0.6710    1.9161   -1.0449 H         1 <0>         0.1586
     37 H13         3.0509    1.9304    1.0936 H         1 <0>         0.1546
     38 H14         3.0715   -0.5257    1.0620 H         1 <0>         0.1698
     39 H15         2.9660    6.1074    1.1168 H         1 <0>         0.1034
     40 H16         2.0738    6.0349   -0.4217 H         1 <0>         0.0833
     41 H17         1.1888    6.0082    1.1224 H         1 <0>         0.0825
@<TRIPOS>BOND
     1    1    2 1
     2    1   27 1
     3    1   28 1
     4    1   29 1
     5    2    9 1
     6    2    3 2
     7    3    4 1
     8    3   30 1
     9    4    5 2
    10    4    6 am
    11    6    7 1
    12    6    8 1
    13    8    9 2
    14    8   10 1
    15   10   11 1
    16   11   12 1
    17   11   13 1
    18   11   14 1
    19   13   31 1
    20   13   32 1
    21   13   33 1
    22   14   15 2
    23   14   16 am
    24   16   17 1
    25   16   34 1
    26   17   22 ar
    27   17   18 ar
    28   18   19 ar
    29   18   35 1
    30   19   20 ar
    31   19   36 1
    32   20   21 ar
    33   20   23 1
    34   21   22 ar
    35   21   37 1
    36   22   38 1
    37   23   24 2
    38   23   25 1
    39   25   26 1
    40   26   39 1
    41   26   40 1
    42   26   41 1
@<TRIPOS>MOLECULE
ZINC03612643
   41    42     0     0     0
SMALL
USER_CHARGES

@<TRIPOS>ATOM
      1 C1          0.8679   -8.7799   -0.7762 C.3       1 <0>        -0.1740
      2 C2          2.2224   -8.3348   -0.2882 C.ar      1 <0>         0.1021
      3 C3          3.1596   -9.2637    0.0615 C.ar      1 <0>        -0.4062
      4 C4          4.4183   -8.8249    0.5081 C.ar      1 <0>         0.2344
      5 O1          5.2774   -9.6281    0.8331 O.3       1 <0>        -0.1694
      6 N1          4.6542   -7.4975    0.5824 N.ar      1 <0>        -0.2498
      7 H1          4.9276  -10.5572    0.7130 H         1 <0>         0.2671
      8 C5          3.6789   -6.6167    0.2252 C.ar      1 <0>        -0.0361
      9 N2          2.5026   -7.0372   -0.1988 N.ar      1 <0>        -0.2904
     10 S1          3.9934   -4.8862    0.3312 S.3       1 <0>         0.3654
     11 C6          2.4072   -4.2419   -0.2561 C.3       1 <0>        -0.2650
     12 H2          1.6001   -4.6590    0.3462 H         1 <0>         0.1319
     13 C7          2.2071   -4.6369   -1.7207 C.3       1 <0>        -0.2080
     14 C8          2.3995   -2.7398   -0.1355 C.2       1 <0>         0.3194
     15 O2          3.4451   -2.1255   -0.1427 O.2       1 <0>        -0.3360
     16 N3          1.2305   -2.0790   -0.0195 N.am      1 <0>        -0.3211
     17 C9          1.2163   -0.6851   -0.0041 C.ar      1 <0>         0.0903
     18 C10         0.1628    0.0049   -0.5959 C.ar      1 <0>        -0.1800
     19 C11         0.1450    1.3811   -0.5818 C.ar      1 <0>        -0.0478
     20 C12         1.1873    2.0858    0.0278 C.ar      1 <0>        -0.1330
     21 C13         2.2442    1.3893    0.6215 C.ar      1 <0>        -0.0601
     22 C14         2.2554    0.0130    0.6036 C.ar      1 <0>        -0.1464
     23 C15         1.1720    3.5603    0.0445 C.2       1 <0>         0.3515
     24 O3          0.2528    4.1642   -0.4719 O.2       1 <0>        -0.3657
     25 O4          2.1775    4.2379    0.6325 O.3       1 <0>        -0.2668
     26 C16         2.0965    5.6874    0.6111 C.3       1 <0>        -0.0507
     27 H3          0.2591   -7.9055   -1.0059 H         1 <0>         0.1004
     28 H4          0.9865   -9.3861   -1.6743 H         1 <0>         0.0946
     29 H5          0.3785   -9.3701   -0.0015 H         1 <0>         0.0948
     30 H6          2.9394  -10.3188   -0.0085 H         1 <0>         0.1401
     31 H7          3.0141   -4.2199   -2.3230 H         1 <0>         0.0969
     32 H8          2.2127   -5.7234   -1.8079 H         1 <0>         0.1189
     33 H9          1.2519   -4.2489   -2.0744 H         1 <0>         0.0754
     34 H10         0.3991   -2.5734    0.0533 H         1 <0>         0.2374
     35 H11        -0.6421   -0.5401   -1.0666 H         1 <0>         0.1360
     36 H12        -0.6710    1.9161   -1.0449 H         1 <0>         0.1570
     37 H13         3.0509    1.9304    1.0936 H         1 <0>         0.1538
     38 H14         3.0715   -0.5257    1.0620 H         1 <0>         0.1716
     39 H15         2.9660    6.1074    1.1168 H         1 <0>         0.1028
     40 H16         2.0738    6.0349   -0.4217 H         1 <0>         0.0828
     41 H17         1.1888    6.0082    1.1224 H         1 <0>         0.0818
@<TRIPOS>BOND
     1    1    2 1
     2    1   27 1
     3    1   28 1
     4    1   29 1
     5    2    3 ar
     6    2    9 ar
     7    3   30 1
     8    3    4 ar
     9    4    6 ar
    10    4    5 1
    11    5    7 1
    12    6    8 ar
    13    8   10 1
    14    8    9 ar
    15   10   11 1
    16   11   12 1
    17   11   13 1
    18   11   14 1
    19   13   31 1
    20   13   32 1
    21   13   33 1
    22   14   15 2
    23   14   16 am
    24   16   17 1
    25   16   34 1
    26   17   22 ar
    27   17   18 ar
    28   18   19 ar
    29   18   35 1
    30   19   20 ar
    31   19   36 1
    32   20   21 ar
    33   20   23 1
    34   21   22 ar
    35   21   37 1
    36   22   38 1
    37   23   24 2
    38   23   25 1
    39   25   26 1
    40   26   39 1
    41   26   40 1
    42   26   41 1
@<TRIPOS>MOLECULE
ZINC03621269
   43    45     0     0     0
SMALL
USER_CHARGES

@<TRIPOS>ATOM
      1 C1          0.1823   -0.0013    0.1179 C.3       1 <0>        -0.1918
      2 C2          0.1499    1.5284    0.1188 C.3       1 <0>        -0.6904
      3 C3          1.5733    2.0686    0.2697 C.3       1 <0>        -0.1952
      4 S1         -0.8678    2.1108    1.5028 S.o2      1 <0>         2.6593
      5 O1         -2.2300    1.7686    1.2867 O.2       1 <0>        -0.8979
      6 O2         -0.2326    1.8102    2.7379 O.2       1 <0>        -0.8992
      7 C4         -0.8224    3.8686    1.3900 C.ar      1 <0>        -0.7322
      8 C5          0.1624    4.5764    2.0557 C.ar      1 <0>        -0.0372
      9 C6          0.2061    5.9527    1.9673 C.ar      1 <0>        -0.1414
     10 C7         -0.7513    6.6309    1.2131 C.ar      1 <0>         0.0147
     11 C8         -1.7449    5.9121    0.5486 C.ar      1 <0>        -0.1095
     12 C9         -1.7752    4.5357    0.6408 C.ar      1 <0>        -0.0364
     13 C10        -0.7135    8.1088    1.1187 C.2       1 <0>         0.0517
     14 N1         -1.8180    8.7852    0.9882 N.2       1 <0>        -0.1725
     15 C11        -1.8240   10.2392    0.8653 C.3       1 <0>        -0.0873
     16 C12        -0.7406   10.8719    1.7367 C.3       1 <0>        -0.1524
     17 C13         0.5772   10.1897    1.4775 C.ar      1 <0>        -0.0491
     18 C14         0.5795    8.8255    1.1783 C.ar      1 <0>        -0.0953
     19 C15         1.7817    8.1668    0.9266 C.ar      1 <0>        -0.1171
     20 C16         2.9712    8.8708    0.9874 C.ar      1 <0>         0.0375
     21 C17         2.9628   10.2306    1.2923 C.ar      1 <0>         0.0644
     22 C18         1.7624   10.8855    1.5366 C.ar      1 <0>        -0.1419
     23 O3          4.1331   10.9181    1.3514 O.3       1 <0>        -0.2758
     24 O4          4.1497    8.2354    0.7488 O.3       1 <0>        -0.2742
     25 H1          0.6080   -0.3562    1.0564 H         1 <0>         0.0912
     26 H2         -0.8318   -0.3862    0.0103 H         1 <0>         0.0906
     27 H3          0.7939   -0.3512   -0.7138 H         1 <0>         0.0946
     28 H4         -0.2758    1.8833   -0.8198 H         1 <0>         0.1410
     29 H5          2.1849    1.7186   -0.5620 H         1 <0>         0.0936
     30 H6          1.5502    3.1584    0.2703 H         1 <0>         0.0800
     31 H7          1.9990    1.7137    1.2083 H         1 <0>         0.0949
     32 H8          0.9010    4.0504    2.6423 H         1 <0>         0.1520
     33 H9          0.9778    6.5039    2.4840 H         1 <0>         0.1425
     34 H10        -2.4887    6.4317   -0.0371 H         1 <0>         0.1568
     35 H11        -2.5440    3.9779    0.1267 H         1 <0>         0.1542
     36 H12        -1.6488   10.5105   -0.1757 H         1 <0>         0.1035
     37 H13        -2.7975   10.6199    1.1745 H         1 <0>         0.1153
     38 H14        -0.6543   11.9316    1.4966 H         1 <0>         0.1005
     39 H15        -1.0076   10.7586    2.7874 H         1 <0>         0.1057
     40 H16         1.7855    7.1130    0.6901 H         1 <0>         0.1552
     41 H17         1.7596   11.9395    1.7722 H         1 <0>         0.1484
     42 H18         4.5417   10.9246    2.2278 H         1 <0>         0.2264
     43 H19         4.5608    7.8593    1.5392 H         1 <0>         0.2227
@<TRIPOS>BOND
     1    1    2 1
     2    1   25 1
     3    1   26 1
     4    1   27 1
     5    2    3 1
     6    2    4 1
     7    2   28 1
     8    3   29 1
     9    3   30 1
    10    3   31 1
    11    4    5 2
    12    4    6 2
    13    4    7 1
    14    7   12 ar
    15    7    8 ar
    16    8    9 ar
    17    8   32 1
    18    9   10 ar
    19    9   33 1
    20   10   11 ar
    21   10   13 1
    22   11   12 ar
    23   11   34 1
    24   12   35 1
    25   13   18 1
    26   13   14 2
    27   14   15 1
    28   15   16 1
    29   15   36 1
    30   15   37 1
    31   16   17 1
    32   16   38 1
    33   16   39 1
    34   17   22 ar
    35   17   18 ar
    36   18   19 ar
    37   19   20 ar
    38   19   40 1
    39   20   21 ar
    40   20   24 1
    41   21   22 ar
    42   21   23 1
    43   22   41 1
    44   23   42 1
    45   24   43 1
@<TRIPOS>MOLECULE
ZINC03625097
   43    44     0     0     0
SMALL
USER_CHARGES

@<TRIPOS>ATOM
      1 C1          2.5008    1.0769   -0.0385 C.3       1 <0>        -0.1828
      2 C2          1.1725    1.7885   -0.0218 C.ar      1 <0>         0.0117
      3 C3         -0.0136    1.0757   -0.0231 C.ar      1 <0>        -0.2047
      4 C4         -1.2181    1.7563   -0.0134 C.ar      1 <0>         0.0357
      5 N1         -1.2586    3.0740    0.0072 N.ar      1 <0>        -0.2034
      6 C5         -0.1543    3.8057    0.0097 C.ar      1 <0>        -0.1038
      7 C6          1.1082    3.1863   -0.0050 C.ar      1 <0>        -0.1756
      8 C7          2.3409    3.9943   -0.0024 C.2       1 <0>         0.3517
      9 O1          2.8436    4.3400   -1.0543 O.2       1 <0>        -0.3457
     10 N2          2.9109    4.3501    1.1660 N.am      1 <0>        -0.4218
     11 S1         -0.2678    5.5640    0.0309 S.3       1 <0>         0.3097
     12 C8         -2.0668    5.7626    0.0439 C.3       1 <0>        -0.3122
     13 C9         -2.4100    7.2299    0.0631 C.2       1 <0>         0.3136
     14 O2         -1.5253    8.0597    0.0676 O.2       1 <0>        -0.3430
     15 N3         -3.7000    7.6201    0.0753 N.am      1 <0>        -0.3204
     16 C10        -4.0197    8.9794    0.1909 C.ar      1 <0>         0.0182
     17 C11        -5.1510    9.3693    0.8950 C.ar      1 <0>        -0.1203
     18 C12        -5.4626   10.7094    1.0130 C.ar      1 <0>        -0.2069
     19 C13        -4.6519   11.6653    0.4185 C.ar      1 <0>         0.0837
     20 C14        -3.5243   11.2761   -0.2896 C.ar      1 <0>        -0.1425
     21 C15        -3.2084    9.9366   -0.4035 C.ar      1 <0>        -0.0878
     22 O3         -4.9624   12.9844    0.5302 O.3       1 <0>        -0.2111
     23 C16        -6.1376   13.3135    1.2736 C.3       1 <0>        -0.0627
     24 C17        -2.5079    0.9769   -0.0211 C.3       1 <0>        -0.1682
     25 H1          2.8148    0.9178   -1.0700 H         1 <0>         0.1074
     26 H2          3.2445    1.6837    0.4782 H         1 <0>         0.0917
     27 H3          2.4039    0.1147    0.4644 H         1 <0>         0.0863
     28 H4          0.0009   -0.0042   -0.0362 H         1 <0>         0.1433
     29 H5          2.5099    4.0743    2.0051 H         1 <0>         0.2190
     30 H6          3.7221    4.8819    1.1677 H         1 <0>         0.2326
     31 H7         -2.4896    5.3022   -0.8491 H         1 <0>         0.1356
     32 H8         -2.4791    5.2814    0.9308 H         1 <0>         0.1328
     33 H9         -4.4071    6.9599    0.0041 H         1 <0>         0.2322
     34 H10        -5.7849    8.6250    1.3539 H         1 <0>         0.1287
     35 H11        -6.3399   11.0132    1.5647 H         1 <0>         0.1361
     36 H12        -2.8936   12.0207   -0.7523 H         1 <0>         0.1492
     37 H13        -2.3303    9.6337   -0.9546 H         1 <0>         0.1713
     38 H14        -6.0350   12.9491    2.2957 H         1 <0>         0.0676
     39 H15        -6.2692   14.3955    1.2850 H         1 <0>         0.1078
     40 H16        -7.0052   12.8469    0.8069 H         1 <0>         0.0662
     41 H17        -2.8175    0.7765    1.0046 H         1 <0>         0.0943
     42 H18        -3.2798    1.5568   -0.5270 H         1 <0>         0.0983
     43 H19        -2.3592    0.0335   -0.5466 H         1 <0>         0.0881
@<TRIPOS>BOND
     1    1    2 1
     2    1   25 1
     3    1   26 1
     4    1   27 1
     5    2    7 ar
     6    2    3 ar
     7    3    4 ar
     8    3   28 1
     9    4    5 ar
    10    4   24 1
    11    5    6 ar
    12    6    7 ar
    13    6   11 1
    14    7    8 1
    15    8    9 2
    16    8   10 am
    17   10   29 1
    18   10   30 1
    19   11   12 1
    20   12   13 1
    21   12   31 1
    22   12   32 1
    23   13   14 2
    24   13   15 am
    25   15   16 1
    26   15   33 1
    27   16   21 ar
    28   16   17 ar
    29   17   18 ar
    30   17   34 1
    31   18   19 ar
    32   18   35 1
    33   19   20 ar
    34   19   22 1
    35   20   21 ar
    36   20   36 1
    37   21   37 1
    38   22   23 1
    39   23   38 1
    40   23   39 1
    41   23   40 1
    42   24   41 1
    43   24   42 1
    44   24   43 1
@<TRIPOS>MOLECULE
ZINC03625390
   42    44     0     0     0
SMALL
USER_CHARGES

@<TRIPOS>ATOM
      1 C1          1.3384  -10.8182   -1.0098 C.3       1 <0>        -0.1754
      2 C2          0.9726   -9.3687   -0.8199 C.ar      1 <0>        -0.0867
      3 C3          1.8242   -8.3771   -1.2720 C.ar      1 <0>        -0.1067
      4 C4          1.4891   -7.0480   -1.1051 C.ar      1 <0>        -0.1270
      5 C5          0.3013   -6.7072   -0.4708 C.ar      1 <0>         0.0552
      6 C6         -0.5513   -7.7051   -0.0175 C.ar      1 <0>        -0.1535
      7 C7         -0.2133   -9.0328   -0.1936 C.ar      1 <0>        -0.0573
      8 C8         -1.1381  -10.1164    0.2980 C.3       1 <0>        -0.1765
      9 N1         -0.0380   -5.3613   -0.2939 N.am      1 <0>        -0.3169
     10 C9          0.9279   -4.4442   -0.0882 C.2       1 <0>         0.3163
     11 O1          2.0818   -4.7963    0.0368 O.2       1 <0>        -0.3432
     12 C10         0.5743   -2.9812   -0.0136 C.3       1 <0>        -0.3185
     13 S1          2.0761   -2.0111    0.2683 S.3       1 <0>         0.3432
     14 C11         1.3891   -0.3891    0.3116 C.2       1 <0>        -0.1920
     15 N2          0.1199   -0.0731    0.1677 N.2       1 <0>        -0.1749
     16 N3         -0.0395    1.1983    0.2521 N.2       1 <0>        -0.0077
     17 N4          1.0928    1.7808    0.4524 N.2       1 <0>        -0.0083
     18 N5          2.0686    0.7699    0.4992 N.pl3     1 <0>        -0.1062
     19 C12         3.4492    0.9262    0.6966 C.ar      1 <0>         0.0153
     20 C13         4.3487    0.2737   -0.1336 C.ar      1 <0>        -0.1093
     21 C14         5.7076    0.4294    0.0624 C.ar      1 <0>        -0.1242
     22 C15         6.1745    1.2349    1.0850 C.ar      1 <0>        -0.1015
     23 C16         5.2843    1.8883    1.9163 C.ar      1 <0>        -0.1466
     24 C17         3.9198    1.7415    1.7230 C.ar      1 <0>         0.0992
     25 O2          3.0430    2.3875    2.5365 O.3       1 <0>        -0.2719
     26 H1          0.9462  -11.1699   -1.9641 H         1 <0>         0.0855
     27 H2          2.4233  -10.9232   -1.0020 H         1 <0>         0.0820
     28 H3          0.9102  -11.4100   -0.2007 H         1 <0>         0.0844
     29 H4          2.7499   -8.6427   -1.7609 H         1 <0>         0.1356
     30 H5          2.1520   -6.2742   -1.4630 H         1 <0>         0.1572
     31 H6         -1.4778   -7.4434    0.4718 H         1 <0>         0.1306
     32 H7         -1.8417  -10.3796   -0.4918 H         1 <0>         0.0867
     33 H8         -0.5545  -10.9952    0.5724 H         1 <0>         0.0878
     34 H9         -1.6869   -9.7582    1.1690 H         1 <0>         0.0809
     35 H10        -0.9685   -5.0884   -0.3194 H         1 <0>         0.2360
     36 H11        -0.1235   -2.8175    0.8077 H         1 <0>         0.1407
     37 H12         0.1118   -2.6709   -0.9505 H         1 <0>         0.1419
     38 H13         3.9870   -0.3563   -0.9328 H         1 <0>         0.1537
     39 H14         6.4069   -0.0789   -0.5849 H         1 <0>         0.1446
     40 H15         7.2375    1.3534    1.2347 H         1 <0>         0.1412
     41 H16         5.6522    2.5166    2.7140 H         1 <0>         0.1517
     42 H17         2.7894    1.8826    3.3213 H         1 <0>         0.2349
@<TRIPOS>BOND
     1    1    2 1
     2    1   26 1
     3    1   27 1
     4    1   28 1
     5    2    7 ar
     6    2    3 ar
     7    3    4 ar
     8    3   29 1
     9    4    5 ar
    10    4   30 1
    11    5    6 ar
    12    5    9 1
    13    6    7 ar
    14    6   31 1
    15    7    8 1
    16    8   32 1
    17    8   33 1
    18    8   34 1
    19    9   10 am
    20    9   35 1
    21   10   11 2
    22   10   12 1
    23   12   13 1
    24   12   36 1
    25   12   37 1
    26   13   14 1
    27   14   18 1
    28   14   15 2
    29   15   16 1
    30   16   17 2
    31   17   18 1
    32   18   19 1
    33   19   24 ar
    34   19   20 ar
    35   20   21 ar
    36   20   38 1
    37   21   22 ar
    38   21   39 1
    39   22   23 ar
    40   22   40 1
    41   23   24 ar
    42   23   41 1
    43   24   25 1
    44   25   42 1
@<TRIPOS>MOLECULE
ZINC03629241
   43    45     0     0     0
SMALL
USER_CHARGES

@<TRIPOS>ATOM
      1 C1          2.3352    1.0313   -0.7733 C.3       1 <0>        -0.2414
      2 C2          0.9244    1.5611   -0.7587 C.2       1 <0>         0.3001
      3 O1          0.6309    2.5232   -1.4364 O.2       1 <0>        -0.3520
      4 N1         -0.0111    0.9658    0.0074 N.am      1 <0>        -0.3304
      5 C3         -1.2924    1.5198    0.1040 C.ar      1 <0>         0.0650
      6 C4         -1.4603    2.8975    0.0554 C.ar      1 <0>        -0.1238
      7 C5         -2.7268    3.4409    0.1453 C.ar      1 <0>        -0.1032
      8 C6         -3.8259    2.6153    0.2955 C.ar      1 <0>        -0.0954
      9 C7         -3.6616    1.2433    0.3495 C.ar      1 <0>        -0.1038
     10 C8         -2.3982    0.6934    0.2545 C.ar      1 <0>        -0.1602
     11 C9         -5.2058    3.2119    0.4000 C.3       1 <0>        -0.1398
     12 C10        -5.5325    3.4871    1.8692 C.3       1 <0>         0.0030
     13 N2         -6.8739    4.0672    1.9708 N.pl3     1 <0>        -0.3437
     14 C11        -7.3892    4.4009    3.2059 C.ar      1 <0>         0.2128
     15 C12        -8.6818    4.9684    3.3259 C.ar      1 <0>        -0.1418
     16 C13        -9.4942    5.2053    2.2121 C.ar      1 <0>        -0.1964
     17 C14       -10.7462    5.7567    2.3932 C.ar      1 <0>         0.1059
     18 C15       -11.2063    6.0717    3.6756 C.ar      1 <0>        -0.1570
     19 C16       -10.4328    5.8438    4.7728 C.ar      1 <0>        -0.0726
     20 C17        -9.1559    5.2852    4.6221 C.ar      1 <0>         0.0364
     21 N3         -8.3598    5.0442    5.6754 N.ar      1 <0>        -0.2409
     22 C18        -7.1696    4.5211    5.5040 C.ar      1 <0>         0.0459
     23 N4         -6.6862    4.2045    4.3127 N.ar      1 <0>        -0.3001
     24 N5        -11.5619    6.0020    1.2851 N.pl3     1 <0>        -0.4214
     25 H1          2.3314   -0.0027   -1.1181 H         1 <0>         0.0952
     26 H2          2.9436    1.6363   -1.4456 H         1 <0>         0.1194
     27 H3          2.7509    1.0771    0.2332 H         1 <0>         0.0967
     28 H4          0.2026    0.1512    0.4885 H         1 <0>         0.2319
     29 H5         -0.6017    3.5431   -0.0568 H         1 <0>         0.1611
     30 H6         -2.8585    4.5120    0.1027 H         1 <0>         0.1358
     31 H7         -4.5220    0.6012    0.4665 H         1 <0>         0.1325
     32 H8         -2.2705   -0.3782    0.2967 H         1 <0>         0.1299
     33 H9         -5.2414    4.1457   -0.1612 H         1 <0>         0.0917
     34 H10        -5.9356    2.5137   -0.0098 H         1 <0>         0.0897
     35 H11        -5.4969    2.5534    2.4304 H         1 <0>         0.0982
     36 H12        -4.8027    4.1854    2.2790 H         1 <0>         0.0996
     37 H13        -7.3997    4.2165    1.1695 H         1 <0>         0.2370
     38 H14        -9.1432    4.9633    1.2198 H         1 <0>         0.1232
     39 H15       -12.1892    6.5022    3.7976 H         1 <0>         0.1327
     40 H16       -10.8019    6.0931    5.7567 H         1 <0>         0.1516
     41 H17        -6.5557    4.3406    6.3740 H         1 <0>         0.1891
     42 H18       -12.4428    6.3891    1.4075 H         1 <0>         0.2200
     43 H19       -11.2470    5.7852    0.3936 H         1 <0>         0.2194
@<TRIPOS>BOND
     1    1    2 1
     2    1   25 1
     3    1   26 1
     4    1   27 1
     5    2    3 2
     6    2    4 am
     7    4    5 1
     8    4   28 1
     9    5   10 ar
    10    5    6 ar
    11    6    7 ar
    12    6   29 1
    13    7    8 ar
    14    7   30 1
    15    8    9 ar
    16    8   11 1
    17    9   10 ar
    18    9   31 1
    19   10   32 1
    20   11   12 1
    21   11   33 1
    22   11   34 1
    23   12   13 1
    24   12   35 1
    25   12   36 1
    26   13   14 1
    27   13   37 1
    28   14   23 ar
    29   14   15 ar
    30   15   20 ar
    31   15   16 ar
    32   16   17 ar
    33   16   38 1
    34   17   18 ar
    35   17   24 1
    36   18   19 ar
    37   18   39 1
    38   19   20 ar
    39   19   40 1
    40   20   21 ar
    41   21   22 ar
    42   22   23 ar
    43   22   41 1
    44   24   42 1
    45   24   43 1
@<TRIPOS>MOLECULE
ZINC03629243
   46    48     0     0     0
SMALL
USER_CHARGES

@<TRIPOS>ATOM
      1 C1          3.2142  -12.7139    1.0111 C.3       1 <0>        -0.0555
      2 N1          3.1577  -11.2504    0.9735 N.am      1 <0>        -0.3496
      3 C2          2.5514  -10.5121    2.0842 C.3       1 <0>        -0.0864
      4 C3          3.6634  -10.5834   -0.0828 C.2       1 <0>         0.3485
      5 O1          4.0753  -11.1965   -1.0482 O.2       1 <0>        -0.3649
      6 C4          3.7171   -9.1060   -0.0673 C.ar      1 <0>        -0.1222
      7 C5          3.5472   -8.3860   -1.2509 C.ar      1 <0>        -0.0681
      8 C6          3.5981   -7.0076   -1.2295 C.ar      1 <0>        -0.1316
      9 C7          3.8169   -6.3388   -0.0382 C.ar      1 <0>        -0.0566
     10 C8          3.9913   -7.0466    1.1377 C.ar      1 <0>        -0.1342
     11 C9          3.9375   -8.4251    1.1310 C.ar      1 <0>        -0.1125
     12 C10         3.8717   -4.8328   -0.0224 C.3       1 <0>        -0.1463
     13 C11         2.4676   -4.2739    0.2165 C.3       1 <0>         0.0045
     14 N2          2.5209   -2.8099    0.2318 N.pl3     1 <0>        -0.3450
     15 C12         1.3679   -2.0799    0.4325 C.ar      1 <0>         0.2121
     16 C13         1.3973   -0.6636    0.4509 C.ar      1 <0>        -0.1409
     17 C14         2.5829    0.0561    0.2687 C.ar      1 <0>        -0.1978
     18 C15         2.5480    1.4354    0.2976 C.ar      1 <0>         0.1072
     19 C16         1.3423    2.1124    0.5065 C.ar      1 <0>        -0.1567
     20 C17         0.1777    1.4300    0.6858 C.ar      1 <0>        -0.0717
     21 C18         0.1800    0.0284    0.6619 C.ar      1 <0>         0.0362
     22 N3         -0.9440   -0.6844    0.8346 N.ar      1 <0>        -0.2387
     23 C19        -0.9115   -1.9950    0.8077 C.ar      1 <0>         0.0454
     24 N4          0.2020   -2.6846    0.6138 N.ar      1 <0>        -0.3001
     25 N5          3.7279    2.1620    0.1164 N.pl3     1 <0>        -0.4208
     26 H1          4.1422  -13.0295    1.4879 H         1 <0>         0.0716
     27 H2          2.3659  -13.0958    1.5790 H         1 <0>         0.0751
     28 H3          3.1767  -13.1051   -0.0055 H         1 <0>         0.1087
     29 H4          2.5150   -9.4508    1.8380 H         1 <0>         0.1121
     30 H5          1.5400  -10.8801    2.2560 H         1 <0>         0.0770
     31 H6          3.1483  -10.6558    2.9848 H         1 <0>         0.0702
     32 H7          3.3760   -8.9069   -2.1814 H         1 <0>         0.1538
     33 H8          3.4664   -6.4492   -2.1446 H         1 <0>         0.1377
     34 H9          4.1658   -6.5187    2.0636 H         1 <0>         0.1345
     35 H10         4.0697   -8.9764    2.0503 H         1 <0>         0.1436
     36 H11         4.2479   -4.4729   -0.9800 H         1 <0>         0.0945
     37 H12         4.5353   -4.5017    0.7763 H         1 <0>         0.0930
     38 H13         2.0914   -4.6338    1.1741 H         1 <0>         0.0983
     39 H14         1.8039   -4.6050   -0.5823 H         1 <0>         0.1001
     40 H15         3.3669   -2.3540    0.1008 H         1 <0>         0.2374
     41 H16         3.5162   -0.4625    0.1067 H         1 <0>         0.1228
     42 H17         1.3346    3.1922    0.5255 H         1 <0>         0.1334
     43 H18        -0.7461    1.9672    0.8416 H         1 <0>         0.1523
     44 H19        -1.8350   -2.5366    0.9503 H         1 <0>         0.1897
     45 H20         4.5666    1.6967   -0.0288 H         1 <0>         0.2195
     46 H21         3.7083    3.1316    0.1359 H         1 <0>         0.2205
@<TRIPOS>BOND
     1    1    2 1
     2    1   26 1
     3    1   27 1
     4    1   28 1
     5    2    3 1
     6    2    4 am
     7    3   29 1
     8    3   30 1
     9    3   31 1
    10    4    5 2
    11    4    6 1
    12    6   11 ar
    13    6    7 ar
    14    7    8 ar
    15    7   32 1
    16    8    9 ar
    17    8   33 1
    18    9   10 ar
    19    9   12 1
    20   10   11 ar
    21   10   34 1
    22   11   35 1
    23   12   13 1
    24   12   36 1
    25   12   37 1
    26   13   14 1
    27   13   38 1
    28   13   39 1
    29   14   15 1
    30   14   40 1
    31   15   24 ar
    32   15   16 ar
    33   16   21 ar
    34   16   17 ar
    35   17   18 ar
    36   17   41 1
    37   18   19 ar
    38   18   25 1
    39   19   20 ar
    40   19   42 1
    41   20   21 ar
    42   20   43 1
    43   21   22 ar
    44   22   23 ar
    45   23   24 ar
    46   23   44 1
    47   25   45 1
    48   25   46 1
@<TRIPOS>MOLECULE
ZINC03633167
   42    44     0     0     0
SMALL
USER_CHARGES

@<TRIPOS>ATOM
      1 C1         -0.6948   -0.1828    5.2145 C.3       1 <0>        -0.2328
      2 C2         -0.1723    1.2012    4.8240 C.3       1 <0>         0.1259
      3 H1          0.9143    1.1698    4.7433 H         1 <0>         0.1612
      4 C3         -0.5691    2.2034    5.8772 C.2       1 <0>         0.1459
      5 N1          0.3422    2.6195    6.6992 N.2       1 <0>        -0.2252
      6 C4          0.0597    3.5267    7.6710 C.ar      1 <0>         0.0999
      7 C5          1.0331    3.9830    8.5548 C.ar      1 <0>        -0.2038
      8 C6          0.6892    4.9049    9.5316 C.ar      1 <0>         0.1602
      9 C7         -0.6208    5.3770    9.6349 C.ar      1 <0>        -0.2248
     10 C8         -1.5878    4.9395    8.7757 C.ar      1 <0>         0.0013
     11 C9         -1.2641    4.0125    7.7856 C.ar      1 <0>        -0.2739
     12 C10        -2.2623    3.5070    6.8351 C.2       1 <0>         0.3727
     13 O1         -3.4195    3.8805    6.8751 O.2       1 <0>        -0.2922
     14 O2         -1.8449    2.6098    5.9140 O.3       1 <0>        -0.2158
     15 N2          1.6586    5.3637   10.4178 N.pl3     1 <0>        -0.4040
     16 N3         -0.7466    1.5941    3.5349 N.am      1 <0>        -0.3786
     17 C11        -0.1645    1.1929    2.3874 C.2       1 <0>         0.4077
     18 O3          0.8367    0.5052    2.4222 O.2       1 <0>        -0.4257
     19 O4         -0.6923    1.5541    1.2026 O.3       1 <0>        -0.2703
     20 C12        -0.0127    1.0858    0.0080 C.3       1 <0>         0.0574
     21 C13        -0.7416    1.5850   -1.2129 C.ar      1 <0>        -0.0951
     22 C14        -1.7499    0.8246   -1.7750 C.ar      1 <0>        -0.1011
     23 C15        -2.4217    1.2848   -2.8921 C.ar      1 <0>        -0.1323
     24 C16        -2.0785    2.5007   -3.4529 C.ar      1 <0>        -0.1151
     25 C17        -1.0663    3.2585   -2.8942 C.ar      1 <0>        -0.1325
     26 C18        -0.3980    2.8008   -1.7740 C.ar      1 <0>        -0.1011
     27 H2         -1.7814   -0.1515    5.2952 H         1 <0>         0.0896
     28 H3         -0.4079   -0.9077    4.4528 H         1 <0>         0.1085
     29 H4         -0.2675   -0.4752    6.1737 H         1 <0>         0.0935
     30 H5          2.0483    3.6221    8.4801 H         1 <0>         0.1529
     31 H6         -0.8717    6.0953   10.4015 H         1 <0>         0.1376
     32 H7         -2.5987    5.3095    8.8627 H         1 <0>         0.1549
     33 H8          1.4231    6.0084   11.1032 H         1 <0>         0.2254
     34 H9          2.5701    5.0388   10.3503 H         1 <0>         0.2263
     35 H10        -1.5459    2.1431    3.5071 H         1 <0>         0.2462
     36 H11         0.0021   -0.0041    0.0020 H         1 <0>         0.0971
     37 H12         1.0099    1.4631    0.0003 H         1 <0>         0.0976
     38 H13        -2.0153   -0.1273   -1.3392 H         1 <0>         0.1338
     39 H14        -3.2122    0.6925   -3.3288 H         1 <0>         0.1321
     40 H15        -2.6009    2.8585   -4.3278 H         1 <0>         0.1307
     41 H16        -0.7979    4.2083   -3.3326 H         1 <0>         0.1321
     42 H17         0.3927    3.3928   -1.3375 H         1 <0>         0.1339
@<TRIPOS>BOND
     1    1    2 1
     2    1   27 1
     3    1   28 1
     4    1   29 1
     5    2    3 1
     6    2    4 1
     7    2   16 1
     8    4   14 1
     9    4    5 2
    10    5    6 1
    11    6   11 ar
    12    6    7 ar
    13    7    8 ar
    14    7   30 1
    15    8    9 ar
    16    8   15 1
    17    9   10 ar
    18    9   31 1
    19   10   11 ar
    20   10   32 1
    21   11   12 1
    22   12   13 2
    23   12   14 1
    24   15   33 1
    25   15   34 1
    26   16   17 am
    27   16   35 1
    28   17   18 2
    29   17   19 1
    30   19   20 1
    31   20   21 1
    32   20   36 1
    33   20   37 1
    34   21   26 ar
    35   21   22 ar
    36   22   23 ar
    37   22   38 1
    38   23   24 ar
    39   23   39 1
    40   24   25 ar
    41   24   40 1
    42   25   26 ar
    43   25   41 1
    44   26   42 1
@<TRIPOS>MOLECULE
ZINC03638858
   40    42     0     0     0
SMALL
USER_CHARGES

@<TRIPOS>ATOM
      1 C1         -0.3157   -0.1402    0.5901 C.3       1 <0>        -0.1713
      2 C2         -0.9195    0.7855    1.6146 C.ar      1 <0>         0.0781
      3 C3         -0.1584    1.1889    2.6977 C.ar      1 <0>        -0.2581
      4 C4         -0.7103    2.0387    3.6396 C.ar      1 <0>        -0.0224
      5 C5         -2.0320    2.4628    3.4593 C.ar      1 <0>        -0.2685
      6 C6         -2.7405    2.0095    2.3336 C.ar      1 <0>         0.2319
      7 N1         -2.1613    1.2003    1.4596 N.ar      1 <0>        -0.2336
      8 N2         -4.0481    2.4152    2.1342 N.pl3     1 <0>        -0.2743
      9 C7         -4.7147    2.0703    0.9552 C.ar      1 <0>         0.1103
     10 C8         -3.9980    2.0344   -0.2502 C.ar      1 <0>        -0.1472
     11 C9         -4.5925    1.7013   -1.4214 C.ar      1 <0>        -0.0587
     12 C10        -5.9698    1.3914   -1.4420 C.ar      1 <0>        -0.2019
     13 C11        -6.8700    1.0267   -2.4256 C.2       1 <0>        -0.0863
     14 N3         -8.0666    0.8570   -1.8471 N.pl3     1 <0>        -0.1402
     15 H1         -8.9031    0.5908   -2.3261 H         1 <0>         0.2778
     16 N4         -7.9728    1.1074   -0.4733 N.2       1 <0>        -0.1035
     17 C12        -6.7266    1.4336   -0.1809 C.ar      1 <0>        -0.0138
     18 C13        -6.0460    1.7826    1.0044 C.ar      1 <0>        -0.1625
     19 C14        -2.6693    3.3680    4.4330 C.2       1 <0>         0.3701
     20 O1         -3.7946    3.7827    4.2316 O.2       1 <0>        -0.4021
     21 N5         -2.0047    3.7359    5.5463 N.am      1 <0>        -0.3768
     22 C15        -2.6380    4.6355    6.5138 C.3       1 <0>        -0.0004
     23 C16        -1.6772    4.8920    7.6765 C.3       1 <0>        -0.0217
     24 O2         -0.5296    5.5973    7.1994 O.3       1 <0>        -0.3541
     25 H2         -0.5034   -1.1742    0.8793 H         1 <0>         0.0988
     26 H3          0.7591    0.0319    0.5337 H         1 <0>         0.0853
     27 H4         -0.7661    0.0522   -0.3837 H         1 <0>         0.1021
     28 H5          0.8587    0.8427    2.8071 H         1 <0>         0.1393
     29 H6         -0.1353    2.3670    4.4928 H         1 <0>         0.1324
     30 H7         -4.5022    2.9389    2.8127 H         1 <0>         0.2895
     31 H8         -2.9449    2.2740   -0.2439 H         1 <0>         0.1496
     32 H9         -4.0169    1.6772   -2.3349 H         1 <0>         0.1253
     33 H10        -6.6480    0.9005   -3.4750 H         1 <0>         0.1705
     34 H11        -6.5762    1.8213    1.9445 H         1 <0>         0.1443
     35 H12        -1.1071    3.4052    5.7070 H         1 <0>         0.2308
     36 H13        -2.8799    5.5803    6.0271 H         1 <0>         0.1100
     37 H14        -3.5518    4.1771    6.8919 H         1 <0>         0.1008
     38 H15        -2.1795    5.4883    8.4381 H         1 <0>         0.0746
     39 H16        -1.3656    3.9403    8.1071 H         1 <0>         0.0620
     40 H17         0.1239    5.7944    7.8844 H         1 <0>         0.2138
@<TRIPOS>BOND
     1    1    2 1
     2    1   25 1
     3    1   26 1
     4    1   27 1
     5    2    7 ar
     6    2    3 ar
     7    3    4 ar
     8    3   28 1
     9    4    5 ar
    10    4   29 1
    11    5    6 ar
    12    5   19 1
    13    6    7 ar
    14    6    8 1
    15    8    9 1
    16    8   30 1
    17    9   18 ar
    18    9   10 ar
    19   10   11 ar
    20   10   31 1
    21   11   12 ar
    22   11   32 1
    23   12   17 ar
    24   12   13 2
    25   13   14 1
    26   13   33 1
    27   14   15 1
    28   14   16 1
    29   16   17 2
    30   17   18 ar
    31   18   34 1
    32   19   20 2
    33   19   21 am
    34   21   22 1
    35   21   35 1
    36   22   23 1
    37   22   36 1
    38   22   37 1
    39   23   24 1
    40   23   38 1
    41   23   39 1
    42   24   40 1
@<TRIPOS>MOLECULE
ZINC03638858
   40    42     0     0     0
SMALL
USER_CHARGES

@<TRIPOS>ATOM
      1 C1         -0.3157   -0.1402    0.5901 C.3       1 <0>        -0.1716
      2 C2         -0.9195    0.7855    1.6146 C.ar      1 <0>         0.0786
      3 C3         -0.1584    1.1889    2.6977 C.ar      1 <0>        -0.2562
      4 C4         -0.7103    2.0387    3.6396 C.ar      1 <0>        -0.0225
      5 C5         -2.0320    2.4628    3.4593 C.ar      1 <0>        -0.2679
      6 C6         -2.7405    2.0095    2.3336 C.ar      1 <0>         0.2313
      7 N1         -2.1613    1.2003    1.4596 N.ar      1 <0>        -0.2322
      8 N2         -4.0481    2.4152    2.1342 N.pl3     1 <0>        -0.2767
      9 C7         -4.7147    2.0703    0.9552 C.ar      1 <0>         0.1324
     10 C8         -3.9980    2.0344   -0.2502 C.ar      1 <0>        -0.1687
     11 C9         -4.5925    1.7013   -1.4214 C.ar      1 <0>        -0.0409
     12 C10        -5.9698    1.3914   -1.4420 C.ar      1 <0>        -0.2019
     13 C11        -6.8700    1.0268   -2.4256 C.2       1 <0>        -0.1051
     14 N3         -8.0666    0.8572   -1.8471 N.2       1 <0>        -0.0811
     15 H1         -8.7269    1.0490    0.1808 H         1 <0>         0.2805
     16 N4         -7.9728    1.1075   -0.4733 N.pl3     1 <0>        -0.1717
     17 C12        -6.7266    1.4336   -0.1809 C.ar      1 <0>         0.0267
     18 C13        -6.0460    1.7826    1.0044 C.ar      1 <0>        -0.2126
     19 C14        -2.6693    3.3680    4.4330 C.2       1 <0>         0.3705
     20 O1         -3.7946    3.7827    4.2316 O.2       1 <0>        -0.4043
     21 N5         -2.0047    3.7359    5.5463 N.am      1 <0>        -0.3760
     22 C15        -2.6380    4.6355    6.5138 C.3       1 <0>        -0.0005
     23 C16        -1.6772    4.8920    7.6765 C.3       1 <0>        -0.0216
     24 O2         -0.5296    5.5973    7.1994 O.3       1 <0>        -0.3540
     25 H2         -0.5034   -1.1742    0.8793 H         1 <0>         0.0992
     26 H3          0.7591    0.0319    0.5337 H         1 <0>         0.0860
     27 H4         -0.7661    0.0522   -0.3837 H         1 <0>         0.1032
     28 H5          0.8587    0.8427    2.8071 H         1 <0>         0.1403
     29 H6         -0.1353    2.3670    4.4928 H         1 <0>         0.1330
     30 H7         -4.5022    2.9389    2.8127 H         1 <0>         0.2887
     31 H8         -2.9449    2.2740   -0.2439 H         1 <0>         0.1510
     32 H9         -4.0169    1.6772   -2.3349 H         1 <0>         0.1308
     33 H10        -6.6481    0.9009   -3.4751 H         1 <0>         0.1861
     34 H11        -6.5762    1.8213    1.9445 H         1 <0>         0.1343
     35 H12        -1.1071    3.4052    5.7070 H         1 <0>         0.2313
     36 H13        -2.8799    5.5803    6.0271 H         1 <0>         0.1102
     37 H14        -3.5518    4.1771    6.8919 H         1 <0>         0.1003
     38 H15        -2.1795    5.4883    8.4381 H         1 <0>         0.0749
     39 H16        -1.3656    3.9403    8.1071 H         1 <0>         0.0621
     40 H17         0.1239    5.7944    7.8844 H         1 <0>         0.2143
@<TRIPOS>BOND
     1    1    2 1
     2    1   25 1
     3    1   26 1
     4    1   27 1
     5    2    7 ar
     6    2    3 ar
     7    3    4 ar
     8    3   28 1
     9    4    5 ar
    10    4   29 1
    11    5    6 ar
    12    5   19 1
    13    6    7 ar
    14    6    8 1
    15    8    9 1
    16    8   30 1
    17    9   18 ar
    18    9   10 ar
    19   10   11 ar
    20   10   31 1
    21   11   12 ar
    22   11   32 1
    23   12   13 1
    24   12   17 ar
    25   13   33 1
    26   13   14 2
    27   14   16 1
    28   15   16 1
    29   16   17 1
    30   17   18 ar
    31   18   34 1
    32   19   20 2
    33   19   21 am
    34   21   22 1
    35   21   35 1
    36   22   23 1
    37   22   36 1
    38   22   37 1
    39   23   24 1
    40   23   38 1
    41   23   39 1
    42   24   40 1
@<TRIPOS>MOLECULE
ZINC03648322
   43    44     0     0     0
SMALL
USER_CHARGES

@<TRIPOS>ATOM
      1 C1          1.1387   -2.2918   -1.4477 C.3       1 <0>        -0.1880
      2 C2          1.3568   -0.9596   -0.7275 C.3       1 <0>        -0.0917
      3 C3          2.3338   -0.0992   -1.5313 C.3       1 <0>        -0.2023
      4 C4          1.9343   -1.2213    0.6650 C.3       1 <0>        -0.2033
      5 C5          0.0406   -0.2373   -0.5979 C.2       1 <0>         0.3119
      6 O1         -0.9722   -0.7386   -1.0383 O.2       1 <0>        -0.3446
      7 N1         -0.0111    0.9658    0.0074 N.am      1 <0>        -0.3304
      8 C6         -1.2151    1.6777    0.0475 C.ar      1 <0>         0.1139
      9 C7         -1.2066    3.0642   -0.0301 C.ar      1 <0>        -0.1874
     10 C8         -2.3971    3.7635    0.0031 C.ar      1 <0>        -0.0120
     11 C9         -3.5959    3.0852    0.1263 C.ar      1 <0>        -0.7592
     12 C10        -3.6073    1.7050    0.2099 C.ar      1 <0>        -0.0127
     13 C11        -2.4206    0.9995    0.1707 C.ar      1 <0>        -0.1524
     14 S1         -5.1120    3.9816    0.1761 S.o2      1 <0>         2.7471
     15 O2         -4.8702    5.2248   -0.4682 O.2       1 <0>        -0.9137
     16 O3         -6.1278    3.0857   -0.2537 O.2       1 <0>        -0.9108
     17 C12        -5.4456    4.3473    1.8672 C.ar      1 <0>        -0.7996
     18 C13        -6.1862    3.4638    2.6309 C.ar      1 <0>         0.0184
     19 C14        -6.4447    3.7447    3.9582 C.ar      1 <0>        -0.2304
     20 C15        -5.9695    4.9216    4.5227 C.ar      1 <0>         0.1675
     21 C16        -5.2307    5.8095    3.7511 C.ar      1 <0>        -0.2309
     22 C17        -4.9711    5.5198    2.4260 C.ar      1 <0>         0.0173
     23 N2         -6.2336    5.2112    5.8634 N.pl3     1 <0>        -0.4094
     24 H1          0.7274   -2.1054   -2.4398 H         1 <0>         0.0932
     25 H2          2.0907   -2.8143   -1.5415 H         1 <0>         0.0753
     26 H3          0.4427   -2.9047   -0.8751 H         1 <0>         0.0905
     27 H4          2.4892    0.8498   -1.0182 H         1 <0>         0.0692
     28 H5          3.2858   -0.6217   -1.6251 H         1 <0>         0.0863
     29 H6          1.9224    0.0872   -2.5234 H         1 <0>         0.0898
     30 H7          1.2382   -1.8343    1.2376 H         1 <0>         0.0872
     31 H8          2.8863   -1.7438    0.5712 H         1 <0>         0.0874
     32 H9          2.0896   -0.2723    1.1781 H         1 <0>         0.0683
     33 H10         0.7854    1.3365    0.4186 H         1 <0>         0.2361
     34 H11        -0.2703    3.5948   -0.1212 H         1 <0>         0.1341
     35 H12        -2.3916    4.8415   -0.0628 H         1 <0>         0.1497
     36 H13        -4.5452    1.1781    0.3057 H         1 <0>         0.1528
     37 H14        -2.4303   -0.0786    0.2354 H         1 <0>         0.1702
     38 H15        -6.5593    2.5512    2.1901 H         1 <0>         0.1489
     39 H16        -7.0194    3.0522    4.5553 H         1 <0>         0.1349
     40 H17        -4.8602    6.7256    4.1869 H         1 <0>         0.1343
     41 H18        -4.3965    6.2096    1.8256 H         1 <0>         0.1474
     42 H19        -5.9010    6.0332    6.2566 H         1 <0>         0.2235
     43 H20        -6.7495    4.5904    6.4012 H         1 <0>         0.2238
@<TRIPOS>BOND
     1    1    2 1
     2    1   24 1
     3    1   25 1
     4    1   26 1
     5    2    3 1
     6    2    4 1
     7    2    5 1
     8    3   27 1
     9    3   28 1
    10    3   29 1
    11    4   30 1
    12    4   31 1
    13    4   32 1
    14    5    6 2
    15    5    7 am
    16    7    8 1
    17    7   33 1
    18    8   13 ar
    19    8    9 ar
    20    9   10 ar
    21    9   34 1
    22   10   11 ar
    23   10   35 1
    24   11   12 ar
    25   11   14 1
    26   12   13 ar
    27   12   36 1
    28   13   37 1
    29   14   15 2
    30   14   16 2
    31   14   17 1
    32   17   22 ar
    33   17   18 ar
    34   18   19 ar
    35   18   38 1
    36   19   20 ar
    37   19   39 1
    38   20   21 ar
    39   20   23 1
    40   21   22 ar
    41   21   40 1
    42   22   41 1
    43   23   42 1
    44   23   43 1
@<TRIPOS>MOLECULE
ZINC03653491
   41    45     0     0     0
SMALL
USER_CHARGES

@<TRIPOS>ATOM
      1 C1          0.5609   -1.7470   -5.6644 C.ar      1 <0>        -0.1161
      2 C2          1.6575   -1.3805   -6.4477 C.ar      1 <0>        -0.1122
      3 C3          2.9139   -1.3991   -5.9235 C.ar      1 <0>        -0.0636
      4 C4          3.0625   -1.7922   -4.5969 C.ar      1 <0>        -0.0459
      5 C5          4.3754   -1.7855   -4.1355 C.ar      1 <0>        -0.0795
      6 C6          4.6069   -2.1585   -2.8458 C.ar      1 <0>        -0.0943
      7 C7          3.5499   -2.5357   -2.0176 C.ar      1 <0>        -0.1805
      8 C8          2.2401   -2.5476   -2.4590 C.ar      1 <0>         0.0661
      9 C9          1.9740   -2.1708   -3.7925 C.ar      1 <0>        -0.0391
     10 C10         0.6924   -2.1350   -4.3618 C.ar      1 <0>        -0.1209
     11 N1          1.2056   -2.9289   -1.6072 N.pl3     1 <0>        -0.8024
     12 S1          1.2724   -2.5420    0.0015 S.o2      1 <0>         2.7660
     13 O1          2.5205   -3.0211    0.4830 O.2       1 <0>        -0.9111
     14 O2          0.0324   -2.9436    0.5677 O.2       1 <0>        -0.9091
     15 C11         1.3308   -0.7844    0.1126 C.ar      1 <0>        -0.7572
     16 C12         0.1543   -0.0596    0.1969 C.ar      1 <0>        -0.0219
     17 C13         0.1899    1.3182    0.2843 C.ar      1 <0>        -0.1487
     18 C14         1.4094    1.9783    0.2876 C.ar      1 <0>         0.0543
     19 C15         2.5959    1.2473    0.2022 C.ar      1 <0>        -0.0217
     20 C16         2.5501   -0.1358    0.1148 C.ar      1 <0>        -0.0149
     21 N2          3.6396    2.1693    0.2281 N.am      1 <0>        -0.2942
     22 H1          4.5852    1.9577    0.1843 H         1 <0>         0.2726
     23 C17         3.1121    3.4044    0.3241 C.2       1 <0>         0.3906
     24 O3          3.7524    4.4382    0.3696 O.2       1 <0>        -0.3725
     25 N3          1.7688    3.3219    0.3620 N.am      1 <0>        -0.2945
     26 H2          1.1558    4.0706    0.4297 H         1 <0>         0.2719
     27 C18         5.2530   -1.3324   -5.2775 C.3       1 <0>        -0.1149
     28 C19         4.2889   -1.0779   -6.4565 C.3       1 <0>        -0.1165
     29 H3         -0.4252   -1.7231   -6.1042 H         1 <0>         0.1294
     30 H4          1.5082   -1.0805   -7.4743 H         1 <0>         0.1311
     31 H5          5.6164   -2.1624   -2.4619 H         1 <0>         0.1348
     32 H6          3.7614   -2.8273   -0.9995 H         1 <0>         0.1785
     33 H7         -0.1747   -2.4134   -3.7813 H         1 <0>         0.1292
     34 H8          0.4462   -3.4211   -1.9566 H         1 <0>         0.2557
     35 H9         -0.7954   -0.5739    0.1946 H         1 <0>         0.1564
     36 H10        -0.7301    1.8806    0.3454 H         1 <0>         0.1431
     37 H11         3.4658   -0.7045    0.0482 H         1 <0>         0.1570
     38 H12         5.7749   -0.4133   -5.0112 H         1 <0>         0.0975
     39 H13         5.9687   -2.1127   -5.5365 H         1 <0>         0.0993
     40 H14         4.3393   -0.0343   -6.7671 H         1 <0>         0.0989
     41 H15         4.5328   -1.7338   -7.2922 H         1 <0>         0.0994
@<TRIPOS>BOND
     1    1   10 ar
     2    1    2 ar
     3    1   29 1
     4    2    3 ar
     5    2   30 1
     6    3   28 1
     7    3    4 ar
     8    4    9 ar
     9    4    5 ar
    10    5    6 ar
    11    5   27 1
    12    6    7 ar
    13    6   31 1
    14    7    8 ar
    15    7   32 1
    16    8    9 ar
    17    8   11 1
    18    9   10 ar
    19   10   33 1
    20   11   12 1
    21   11   34 1
    22   12   13 2
    23   12   14 2
    24   12   15 1
    25   15   20 ar
    26   15   16 ar
    27   16   17 ar
    28   16   35 1
    29   17   18 ar
    30   17   36 1
    31   18   25 1
    32   18   19 ar
    33   19   20 ar
    34   19   21 1
    35   20   37 1
    36   21   22 1
    37   21   23 am
    38   23   24 2
    39   23   25 am
    40   25   26 1
    41   27   28 1
    42   27   38 1
    43   27   39 1
    44   28   40 1
    45   28   41 1
@<TRIPOS>MOLECULE
ZINC03657382
   40    42     0     0     0
SMALL
USER_CHARGES

@<TRIPOS>ATOM
      1 C1          3.7947   -4.8050   -0.0717 C.2       1 <0>        -0.3284
      2 C2          4.9418   -4.1253   -0.0817 C.2       1 <0>         0.0893
      3 C3          6.2326   -4.8515   -0.1018 C.ar      1 <0>         0.0056
      4 C4          7.4339   -4.1435   -0.1182 C.ar      1 <0>        -0.1309
      5 C5          8.6334   -4.8255   -0.1315 C.ar      1 <0>        -0.0633
      6 C6          8.6456   -6.2088   -0.1397 C.ar      1 <0>        -0.1106
      7 C7          7.4571   -6.9167   -0.1289 C.ar      1 <0>        -0.0659
      8 C8          6.2514   -6.2458   -0.1102 C.ar      1 <0>        -0.1203
      9 N1          9.9356   -6.9345   -0.1597 N.pl3     1 <0>         0.5479
     10 O1          9.9492   -8.1524   -0.1666 O.2       1 <0>        -0.3544
     11 O2         10.9835   -6.3137   -0.1693 O.3       1 <0>        -0.3531
     12 N2          4.9262   -2.7301   -0.0734 N.pl3     1 <0>        -0.2685
     13 N3          3.7053   -2.0433   -0.0544 N.am      1 <0>        -0.2698
     14 C9          3.6903   -0.6956   -0.0463 C.2       1 <0>         0.3517
     15 O3          4.7363   -0.0759   -0.0555 O.2       1 <0>        -0.3731
     16 C10         2.4039    0.0280   -0.0263 C.ar      1 <0>        -0.1286
     17 C11         1.2008   -0.6820   -0.0157 C.ar      1 <0>        -0.1076
     18 C12         0.0021   -0.0041    0.0020 C.ar      1 <0>        -0.1317
     19 C13        -0.0168    1.3859    0.0097 C.ar      1 <0>         0.0458
     20 C14         1.1790    2.0995    0.0021 C.ar      1 <0>         0.0090
     21 C15         2.3859    1.4246   -0.0175 C.ar      1 <0>        -0.0568
     22 O4          1.1776    3.4608    0.0179 O.3       1 <0>        -0.1988
     23 C16        -0.0490    4.1072   -0.3392 C.3       1 <0>        -0.0524
     24 C17        -1.1941    3.4116    0.4092 C.3       1 <0>        -0.0539
     25 O5         -1.2121    2.0339    0.0189 O.3       1 <0>        -0.2008
     26 H1          3.8067   -5.8849   -0.0781 H         1 <0>         0.1312
     27 H2          2.8535   -4.2755   -0.0570 H         1 <0>         0.1128
     28 H3          7.4255   -3.0635   -0.1163 H         1 <0>         0.1497
     29 H4          9.5644   -4.2783   -0.1400 H         1 <0>         0.1692
     30 H5          7.4729   -7.9965   -0.1354 H         1 <0>         0.1685
     31 H6          5.3241   -6.7994   -0.1017 H         1 <0>         0.1564
     32 H7          5.7608   -2.2357   -0.0807 H         1 <0>         0.2753
     33 H8          2.8708   -2.5377   -0.0471 H         1 <0>         0.2562
     34 H9          1.2106   -1.7619   -0.0218 H         1 <0>         0.1279
     35 H10        -0.9271   -0.5546    0.0097 H         1 <0>         0.1506
     36 H11         3.3139    1.9770   -0.0255 H         1 <0>         0.1739
     37 H12        -0.0076    5.1581   -0.0529 H         1 <0>         0.1265
     38 H13        -0.2083    4.0251   -1.4143 H         1 <0>         0.0970
     39 H14        -1.0308    3.4884    1.4842 H         1 <0>         0.0984
     40 H15        -2.1427    3.8799    0.1467 H         1 <0>         0.1259
@<TRIPOS>BOND
     1    1    2 2
     2    1   26 1
     3    1   27 1
     4    2    3 1
     5    2   12 1
     6    3    8 ar
     7    3    4 ar
     8    4    5 ar
     9    4   28 1
    10    5    6 ar
    11    5   29 1
    12    6    7 ar
    13    6    9 1
    14    7    8 ar
    15    7   30 1
    16    8   31 1
    17    9   10 2
    18    9   11 1
    19   12   13 1
    20   12   32 1
    21   13   14 am
    22   13   33 1
    23   14   15 2
    24   14   16 1
    25   16   21 ar
    26   16   17 ar
    27   17   18 ar
    28   17   34 1
    29   18   19 ar
    30   18   35 1
    31   19   25 1
    32   19   20 ar
    33   20   21 ar
    34   20   22 1
    35   21   36 1
    36   22   23 1
    37   23   24 1
    38   23   37 1
    39   23   38 1
    40   24   25 1
    41   24   39 1
    42   24   40 1
@<TRIPOS>MOLECULE
ZINC03672785
   43    46     0     0     0
SMALL
USER_CHARGES

@<TRIPOS>ATOM
      1 C1          9.0924   -1.3698    0.3146 C.3       1 <0>        -0.1742
      2 C2          8.1787   -0.1715    0.3309 C.ar      1 <0>        -0.0476
      3 C3          8.7116    1.1025    0.4068 C.ar      1 <0>        -0.1563
      4 C4          7.8767    2.2046    0.4220 C.ar      1 <0>        -0.0959
      5 C5          6.5073    2.0365    0.3559 C.ar      1 <0>        -0.1655
      6 C6          5.9688    0.7584    0.2844 C.ar      1 <0>         0.0931
      7 C7          6.8104   -0.3466    0.2694 C.ar      1 <0>        -0.1782
      8 N1          4.5826    0.5846    0.2218 N.am      1 <0>        -0.1587
      9 C8          3.6895    1.5891    0.2238 C.2       1 <0>         0.3805
     10 O1          3.9485    2.7772    0.2795 O.2       1 <0>        -0.3609
     11 C9          2.3450    1.0001    0.1506 C.2       1 <0>        -0.3162
     12 C10         1.1529    1.6604    0.1321 C.2       1 <0>         0.1199
     13 N2         -0.0130    0.9670    0.2733 N.pl3     1 <0>        -0.2609
     14 C11        -1.2397    1.6222    0.1196 C.ar      1 <0>         0.0550
     15 C12        -1.2662    2.9845   -0.1720 C.ar      1 <0>        -0.1591
     16 C13        -2.4684    3.6409   -0.3261 C.ar      1 <0>        -0.0865
     17 C14        -3.6601    2.9439   -0.1907 C.ar      1 <0>        -0.0669
     18 C15        -3.6430    1.5706    0.1032 C.ar      1 <0>        -0.0021
     19 C16        -2.4199    0.9131    0.2523 C.ar      1 <0>        -0.1247
     20 N3         -4.9373    1.1619    0.1758 N.2       1 <0>        -0.1838
     21 C17        -5.7318    2.1756   -0.0501 C.2       1 <0>         0.1614
     22 N4         -4.9966    3.3003   -0.2822 N.pl3     1 <0>        -0.2378
     23 H1         -5.3549    4.2124   -0.4814 H         1 <0>         0.2566
     24 O2         -7.0833    2.1171   -0.0535 O.3       1 <0>        -0.2325
     25 C18         2.5630   -0.4676    0.0947 C.2       1 <0>         0.1316
     26 C19         1.6263   -1.4166    0.0162 C.2       1 <0>        -0.3724
     27 N5          3.9454   -0.6541    0.1417 N.pl3     1 <0>        -0.2812
     28 H2          4.3946   -1.5136    0.1223 H         1 <0>         0.2762
     29 H3          9.3531   -1.6140   -0.7152 H         1 <0>         0.0871
     30 H4          9.9994   -1.1427    0.8749 H         1 <0>         0.0838
     31 H5          8.5856   -2.2193    0.7724 H         1 <0>         0.0797
     32 H6          9.7821    1.2369    0.4541 H         1 <0>         0.1301
     33 H7          8.2960    3.1981    0.4814 H         1 <0>         0.1352
     34 H8          5.8559    2.8979    0.3633 H         1 <0>         0.1842
     35 H9          6.3949   -1.3418    0.2101 H         1 <0>         0.1238
     36 H10         1.1314    2.7328    0.0056 H         1 <0>         0.1751
     37 H11         0.0083    0.0187    0.4764 H         1 <0>         0.2626
     38 H12        -0.3396    3.5292   -0.2775 H         1 <0>         0.1438
     39 H13        -2.4825    4.6969   -0.5518 H         1 <0>         0.1350
     40 H14        -2.3956   -0.1436    0.4740 H         1 <0>         0.1500
     41 H15        -7.4661    1.9152   -0.9183 H         1 <0>         0.2482
     42 H16         0.5936   -1.1440   -0.1435 H         1 <0>         0.1239
     43 H17         1.9018   -2.4564    0.1123 H         1 <0>         0.1244
@<TRIPOS>BOND
     1    1    2 1
     2    1   29 1
     3    1   30 1
     4    1   31 1
     5    2    7 ar
     6    2    3 ar
     7    3    4 ar
     8    3   32 1
     9    4    5 ar
    10    4   33 1
    11    5    6 ar
    12    5   34 1
    13    6    7 ar
    14    6    8 1
    15    7   35 1
    16    8   27 1
    17    8    9 am
    18    9   10 2
    19    9   11 1
    20   11   12 2
    21   11   25 1
    22   12   13 1
    23   12   36 1
    24   13   14 1
    25   13   37 1
    26   14   19 ar
    27   14   15 ar
    28   15   16 ar
    29   15   38 1
    30   16   17 ar
    31   16   39 1
    32   17   22 1
    33   17   18 ar
    34   18   19 ar
    35   18   20 1
    36   19   40 1
    37   20   21 2
    38   21   22 1
    39   21   24 1
    40   22   23 1
    41   24   41 1
    42   25   26 2
    43   25   27 1
    44   26   42 1
    45   26   43 1
    46   27   28 1
@<TRIPOS>MOLECULE
ZINC03684751
   46    49     0     0     0
SMALL
USER_CHARGES

@<TRIPOS>ATOM
      1 C1         10.0076   -0.3361    5.7177 C.ar      1 <0>        -0.1058
      2 C2          9.1371   -1.1343    4.9993 C.ar      1 <0>        -0.1274
      3 C3          8.8588   -0.8385    3.6779 C.ar      1 <0>        -0.1156
      4 C4          9.4510    0.2553    3.0749 C.ar      1 <0>        -0.1118
      5 C5         10.3256    1.0504    3.7918 C.ar      1 <0>        -0.1063
      6 C6         10.5995    0.7580    5.1148 C.ar      1 <0>        -0.1231
      7 C7          9.1480    0.5775    1.6343 C.3       1 <0>        -0.0741
      8 C8          7.9589    1.5008    1.5655 C.2       1 <0>         0.1026
      9 C9          8.1555    2.8893    1.5936 C.2       1 <0>         0.2097
     10 N1          7.1261    3.7106    1.5360 N.am      1 <0>        -0.1763
     11 C10         5.8880    3.2147    1.4499 C.ar      1 <0>        -0.0106
     12 C11         4.7665    4.0681    1.3842 C.ar      1 <0>        -0.0274
     13 C12         3.5299    3.5050    1.2905 C.ar      1 <0>        -0.1491
     14 C13         3.3989    2.1082    1.2717 C.ar      1 <0>         0.1707
     15 C14         5.6894    1.8133    1.4201 C.ar      1 <0>         0.0623
     16 N2          6.7497    0.9973    1.4798 N.2       1 <0>        -0.1637
     17 N3          2.1342    1.5477    1.1806 N.pl3     1 <0>        -0.1763
     18 C15         1.4182    2.0527    0.0021 C.3       1 <0>        -0.0743
     19 C16        -0.0192    1.5278    0.0131 C.3       1 <0>        -0.1599
     20 C17         0.0017   -0.0033    0.0034 C.3       1 <0>        -0.2064
     21 C18         0.7943   -0.5027    1.2146 C.3       1 <0>         0.0580
     22 H1          0.2982   -0.1833    2.1311 H         1 <0>         0.1010
     23 C19         2.2081    0.0811    1.1688 C.3       1 <0>        -0.1040
     24 O1          0.8653   -1.9296    1.1828 O.3       1 <0>        -0.3466
     25 O2          9.4130    3.3900    1.6810 O.2       1 <0>        -0.3328
     26 H2         10.2251   -0.5672    6.7501 H         1 <0>         0.1422
     27 H3          8.6746   -1.9891    5.4703 H         1 <0>         0.1395
     28 H4          8.1789   -1.4622    3.1166 H         1 <0>         0.1301
     29 H5         10.7917    1.9025    3.3194 H         1 <0>         0.1518
     30 H6         11.2793    1.3818    5.6762 H         1 <0>         0.1441
     31 H7          8.9248   -0.3432    1.0953 H         1 <0>         0.1274
     32 H8         10.0121    1.0636    1.1812 H         1 <0>         0.1469
     33 H9          4.8857    5.1414    1.4040 H         1 <0>         0.1865
     34 H10         2.6523    4.1320    1.2349 H         1 <0>         0.2009
     35 H11         1.9223    1.7124   -0.9024 H         1 <0>         0.0917
     36 H12         1.4071    3.1424    0.0234 H         1 <0>         0.1134
     37 H13        -0.5457    1.8900   -0.8699 H         1 <0>         0.1207
     38 H14        -0.5281    1.8791    0.9107 H         1 <0>         0.1113
     39 H15        -1.0192   -0.3818    0.0550 H         1 <0>         0.1144
     40 H16         0.4759   -0.3554   -0.9126 H         1 <0>         0.1044
     41 H17         2.7708   -0.2612    2.0374 H         1 <0>         0.1163
     42 H18         2.7085   -0.2499    0.2586 H         1 <0>         0.0950
     43 H19         0.0031   -2.3669    1.2065 H         1 <0>         0.2418
     44 H20         7.2708    4.6999    1.5567 H         1 <0>         0.2911
     45 N4          4.4400    1.2408    1.3314 N.ar      1 <0>        -0.1122
     46 H21         4.3054    0.2231    1.3109 H         1 <0>         0.3298
@<TRIPOS>BOND
     1    1    6 ar
     2    1    2 ar
     3    1   26 1
     4    2    3 ar
     5    2   27 1
     6    3    4 ar
     7    3   28 1
     8    4    5 ar
     9    4    7 1
    10    5    6 ar
    11    5   29 1
    12    6   30 1
    13    7    8 1
    14    7   31 1
    15    7   32 1
    16    8    9 1
    17    8   16 2
    18    9   10 am
    19    9   25 2
    20   10   44 1
    21   10   11 1
    22   11   12 ar
    23   11   15 ar
    24   12   13 ar
    25   12   33 1
    26   13   14 ar
    27   13   34 1
    28   14   17 1
    29   14   45 ar
    30   15   45 ar
    31   15   16 1
    32   17   23 1
    33   17   18 1
    34   18   19 1
    35   18   35 1
    36   18   36 1
    37   19   20 1
    38   19   37 1
    39   19   38 1
    40   20   21 1
    41   20   39 1
    42   20   40 1
    43   21   22 1
    44   21   23 1
    45   21   24 1
    46   23   41 1
    47   23   42 1
    48   24   43 1
    49   45   46 1
@<TRIPOS>MOLECULE
ZINC03684813
   46    49     0     0     0
SMALL
USER_CHARGES

@<TRIPOS>ATOM
      1 C1          4.7011    5.5158    2.0610 C.ar      1 <0>        -0.0881
      2 C2          5.0968    5.7521    3.3639 C.ar      1 <0>        -0.1690
      3 C3          5.9364    4.8570    4.0050 C.ar      1 <0>         0.1246
      4 C4          6.3735    3.7229    3.3420 C.ar      1 <0>        -0.1647
      5 C5          5.9716    3.4855    2.0412 C.ar      1 <0>        -0.0807
      6 C6          5.1336    4.3802    1.4019 C.ar      1 <0>        -0.1312
      7 C7          4.6964    4.1205   -0.0167 C.3       1 <0>        -0.0721
      8 C8          3.4207    3.3181   -0.0102 C.2       1 <0>         0.1028
      9 C9          3.4820    1.9169   -0.0182 C.2       1 <0>         0.2106
     10 N1          2.3756    1.2002   -0.0140 N.am      1 <0>        -0.1795
     11 C10         1.1890    1.8152   -0.0001 C.ar      1 <0>         0.0058
     12 C11        -0.0126    1.0758    0.0070 C.ar      1 <0>        -0.0375
     13 C12        -1.1914    1.7577    0.0163 C.ar      1 <0>        -0.1661
     14 C13        -1.1860    3.1607    0.0290 C.ar      1 <0>         0.1603
     15 C14         1.1270    3.2294    0.0087 C.ar      1 <0>         0.0546
     16 N2          2.2637    3.9377    0.0029 N.2       1 <0>        -0.1613
     17 N3         -2.3929    3.8427    0.0433 N.pl3     1 <0>        -0.2217
     18 C15        -3.1847    3.4938    1.2428 C.3       1 <0>        -0.0833
     19 C16        -4.6676    3.5193    0.8284 C.3       1 <0>        -0.1706
     20 C17        -4.6601    3.8710   -0.6770 C.3       1 <0>        -0.1508
     21 C18        -3.2331    3.4626   -1.1211 C.3       1 <0>        -0.0373
     22 H1         -3.1784    2.3888   -1.3006 H         1 <0>         0.0908
     23 C19        -2.8118    4.2422   -2.3684 C.3       1 <0>         0.0079
     24 O1         -3.0709    5.6335   -2.1705 O.3       1 <0>        -0.3418
     25 O2          4.6874    1.2952   -0.0314 O.2       1 <0>        -0.3258
     26 F1          6.3292    5.0903    5.2765 F         1 <0>        -0.0901
     27 H2          4.0504    6.2164    1.5591 H         1 <0>         0.1382
     28 H3          4.7550    6.6369    3.8803 H         1 <0>         0.1558
     29 H4          7.0288    3.0242    3.8409 H         1 <0>         0.1597
     30 H5          6.3125    2.6009    1.5237 H         1 <0>         0.1583
     31 H6          5.4734    3.5634   -0.5402 H         1 <0>         0.1481
     32 H7          4.5258    5.0700   -0.5240 H         1 <0>         0.1298
     33 H8          0.0021   -0.0041    0.0008 H         1 <0>         0.1858
     34 H9         -2.1280    1.2199    0.0170 H         1 <0>         0.1991
     35 H10        -2.9132    2.4968    1.5898 H         1 <0>         0.0727
     36 H11        -3.0068    4.2254    2.0310 H         1 <0>         0.1283
     37 H12        -5.1214    2.5409    0.9862 H         1 <0>         0.1002
     38 H13        -5.2050    4.2818    1.3923 H         1 <0>         0.1218
     39 H14        -5.4116    3.2906   -1.2124 H         1 <0>         0.1116
     40 H15        -4.8191    4.9392   -0.8244 H         1 <0>         0.1408
     41 H16        -1.7471    4.0929   -2.5479 H         1 <0>         0.0475
     42 H17        -3.3787    3.8858   -3.2283 H         1 <0>         0.0915
     43 H18        -2.8276    6.1898   -2.9231 H         1 <0>         0.2287
     44 H19         2.4239    0.2014   -0.0212 H         1 <0>         0.2931
     45 N4         -0.0633    3.9219    0.0232 N.ar      1 <0>        -0.0320
     46 H20        -0.0987    4.9480    0.0294 H         1 <0>         0.3357
@<TRIPOS>BOND
     1    1    6 ar
     2    1    2 ar
     3    1   27 1
     4    2    3 ar
     5    2   28 1
     6    3    4 ar
     7    3   26 1
     8    4    5 ar
     9    4   29 1
    10    5    6 ar
    11    5   30 1
    12    6    7 1
    13    7    8 1
    14    7   31 1
    15    7   32 1
    16    8    9 1
    17    8   16 2
    18    9   10 am
    19    9   25 2
    20   10   44 1
    21   10   11 1
    22   11   12 ar
    23   11   15 ar
    24   12   13 ar
    25   12   33 1
    26   13   14 ar
    27   13   34 1
    28   14   17 1
    29   14   45 ar
    30   15   45 ar
    31   15   16 1
    32   17   21 1
    33   17   18 1
    34   18   19 1
    35   18   35 1
    36   18   36 1
    37   19   20 1
    38   19   37 1
    39   19   38 1
    40   20   21 1
    41   20   39 1
    42   20   40 1
    43   21   22 1
    44   21   23 1
    45   23   24 1
    46   23   41 1
    47   23   42 1
    48   24   43 1
    49   45   46 1
@<TRIPOS>MOLECULE
ZINC03684813
   46    49     0     0     0
SMALL
USER_CHARGES

@<TRIPOS>ATOM
      1 C1          4.7018    5.5173    2.0570 C.ar      1 <0>        -0.0788
      2 C2          5.0980    5.7546    3.3596 C.ar      1 <0>        -0.1597
      3 C3          5.9379    4.8600    4.0010 C.ar      1 <0>         0.1285
      4 C4          6.3747    3.7254    3.3386 C.ar      1 <0>        -0.1528
      5 C5          5.9724    3.4870    2.0382 C.ar      1 <0>        -0.1003
      6 C6          5.1341    4.3813    1.3985 C.ar      1 <0>        -0.1368
      7 C7          4.6964    4.1205   -0.0197 C.3       1 <0>        -0.0845
      8 C8          3.4207    3.3181   -0.0121 C.ar      1 <0>        -0.0132
      9 C9          3.4820    1.9169   -0.0183 C.ar      1 <0>         0.1508
     10 N1          2.3756    1.2002   -0.0141 N.ar      1 <0>        -0.1088
     11 C10         1.1890    1.8152   -0.0002 C.ar      1 <0>        -0.0119
     12 C11        -0.0126    1.0758    0.0069 C.ar      1 <0>         0.0490
     13 C12        -1.1914    1.7577    0.0172 C.ar      1 <0>        -0.2111
     14 C13        -1.1860    3.1607    0.0289 C.ar      1 <0>         0.2047
     15 C14         1.1270    3.2294    0.0077 C.ar      1 <0>         0.0113
     16 N2          2.2637    3.9377    0.0009 N.ar      1 <0>        -0.1224
     17 N3         -2.3929    3.8427    0.0432 N.pl3     1 <0>        -0.2286
     18 C15        -3.1842    3.4946    1.2433 C.3       1 <0>        -0.0829
     19 C16        -4.6673    3.5198    0.8294 C.3       1 <0>        -0.1705
     20 C17        -4.6604    3.8705   -0.6762 C.3       1 <0>        -0.1509
     21 C18        -3.2336    3.4618   -1.1206 C.3       1 <0>        -0.0364
     22 H1         -3.1789    2.3879   -1.2994 H         1 <0>         0.0937
     23 C19        -2.8127    4.2405   -2.3686 C.3       1 <0>         0.0072
     24 O1         -3.0718    5.6320   -2.1716 O.3       1 <0>        -0.3422
     25 O2          4.6874    1.2952   -0.0305 O.3       1 <0>        -0.1927
     26 F1          6.3312    5.0942    5.2722 F         1 <0>        -0.0850
     27 H2          4.0510    6.2176    1.5548 H         1 <0>         0.1440
     28 H3          4.7564    6.6398    3.8754 H         1 <0>         0.1604
     29 H4          7.0302    3.0270    3.8378 H         1 <0>         0.1626
     30 H5          6.3131    2.6021    1.5212 H         1 <0>         0.1276
     31 H6          5.4732    3.5630   -0.5431 H         1 <0>         0.1082
     32 H7          4.5256    5.0696   -0.5276 H         1 <0>         0.1434
     33 H8          0.0021   -0.0041    0.0007 H         1 <0>         0.1993
     34 H9         -2.1280    1.2199    0.0186 H         1 <0>         0.1975
     35 H10        -2.9126    2.4979    1.5909 H         1 <0>         0.0755
     36 H11        -3.0060    4.2268    2.0309 H         1 <0>         0.1275
     37 H12        -5.1210    2.5415    0.9881 H         1 <0>         0.1007
     38 H13        -5.2045    4.2827    1.3930 H         1 <0>         0.1208
     39 H14        -5.4121    3.2897   -1.2109 H         1 <0>         0.1114
     40 H15        -4.8194    4.9386   -0.8243 H         1 <0>         0.1399
     41 H16        -1.7481    4.0911   -2.5484 H         1 <0>         0.0488
     42 H17        -3.3800    3.8835   -3.2280 H         1 <0>         0.0914
     43 H18        -2.8288    6.1877   -2.9246 H         1 <0>         0.2277
     44 H19         5.4158    1.9803   -0.0321 H         1 <0>         0.2669
     45 N4         -0.0633    3.9219    0.0221 N.ar      1 <0>        -0.0558
     46 H20        -0.0987    4.9480    0.0276 H         1 <0>         0.3264
@<TRIPOS>BOND
     1    1    6 ar
     2    1    2 ar
     3    1   27 1
     4    2    3 ar
     5    2   28 1
     6    3    4 ar
     7    3   26 1
     8    4    5 ar
     9    4   29 1
    10    5    6 ar
    11    5   30 1
    12    6    7 1
    13    7    8 1
    14    7   31 1
    15    7   32 1
    16    8    9 ar
    17    8   16 ar
    18    9   10 ar
    19    9   25 1
    20   10   11 ar
    21   11   12 ar
    22   11   15 ar
    23   12   13 ar
    24   12   33 1
    25   13   14 ar
    26   13   34 1
    27   14   17 1
    28   14   45 ar
    29   15   45 ar
    30   15   16 ar
    31   17   21 1
    32   17   18 1
    33   18   19 1
    34   18   35 1
    35   18   36 1
    36   19   20 1
    37   19   37 1
    38   19   38 1
    39   20   21 1
    40   20   39 1
    41   20   40 1
    42   21   22 1
    43   21   23 1
    44   23   24 1
    45   23   41 1
    46   23   42 1
    47   24   43 1
    48   25   44 1
    49   45   46 1
@<TRIPOS>MOLECULE
ZINC03716133
   40    42     0     0     0
SMALL
USER_CHARGES

@<TRIPOS>ATOM
      1 C1          9.5100   -3.6976   -2.2583 C.3       1 <0>        -0.1817
      2 C2          8.1856   -3.0842   -1.8830 C.ar      1 <0>        -0.0273
      3 C3          7.0377   -3.8565   -1.8996 C.ar      1 <0>        -0.1501
      4 C4          5.8192   -3.3023   -1.5509 C.ar      1 <0>        -0.0260
      5 C5          5.7399   -1.9716   -1.1941 C.ar      1 <0>        -0.7272
      6 C6          6.8936   -1.1878   -1.1753 C.ar      1 <0>         0.1016
      7 C7          8.1204   -1.7540   -1.5230 C.ar      1 <0>        -0.1310
      8 C8          6.8165    0.2385   -0.7887 C.2       1 <0>        -0.0852
      9 C9          7.5067    0.8395    0.2249 C.2       1 <0>        -0.3374
     10 C10         7.1377    2.1904    0.2520 C.2       1 <0>         0.1181
     11 N1          6.2662    2.4020   -0.7068 N.pl3     1 <0>        -0.1751
     12 N2          6.0436    1.1936   -1.3789 N.2       1 <0>        -0.0342
     13 H1          5.8342    3.2780   -0.9211 H         1 <0>         0.2797
     14 N3          7.6209    3.1533    1.1460 N.pl3     1 <0>        -0.4217
     15 S1          4.1859   -1.2660   -0.7561 S.o2      1 <0>         2.6585
     16 O1          3.2583   -2.3371   -0.8633 O.2       1 <0>        -0.9090
     17 O2          4.0638   -0.1165   -1.5826 O.2       1 <0>        -0.8609
     18 C11         4.3712   -0.7711    0.9792 C.3       1 <0>        -0.7030
     19 C12         3.0872   -0.1484    1.4638 C.ar      1 <0>        -0.0757
     20 C13         2.1078   -0.9394    2.0347 C.ar      1 <0>        -0.1079
     21 C14         0.9301   -0.3682    2.4792 C.ar      1 <0>        -0.1253
     22 C15         0.7318    0.9940    2.3527 C.ar      1 <0>        -0.1203
     23 C16         1.7114    1.7851    1.7822 C.ar      1 <0>        -0.1285
     24 C17         2.8891    1.2139    1.3377 C.ar      1 <0>        -0.1072
     25 H2          9.9881   -4.1034   -1.3668 H         1 <0>         0.0901
     26 H3          9.3481   -4.4981   -2.9801 H         1 <0>         0.0871
     27 H4         10.1516   -2.9348   -2.6995 H         1 <0>         0.0871
     28 H5          7.0939   -4.8974   -2.1818 H         1 <0>         0.1359
     29 H6          4.9274   -3.9114   -1.5616 H         1 <0>         0.1594
     30 H7          9.0171   -1.1522   -1.5107 H         1 <0>         0.1425
     31 H8          8.2114    0.3590    0.8875 H         1 <0>         0.1560
     32 H9          8.2700    2.9046    1.8225 H         1 <0>         0.2406
     33 H10         7.3065    4.0692    1.0890 H         1 <0>         0.2189
     34 H11         5.1815   -0.0472    1.0661 H         1 <0>         0.1538
     35 H12         4.6008   -1.6480    1.5846 H         1 <0>         0.1397
     36 H13         2.2626   -2.0037    2.1332 H         1 <0>         0.1385
     37 H14         0.1648   -0.9862    2.9250 H         1 <0>         0.1329
     38 H15        -0.1903    1.4396    2.6956 H         1 <0>         0.1298
     39 H16         1.5563    2.8493    1.6831 H         1 <0>         0.1297
     40 H17         3.6544    1.8319    0.8919 H         1 <0>         0.1347
@<TRIPOS>BOND
     1    1    2 1
     2    1   25 1
     3    1   26 1
     4    1   27 1
     5    2    7 ar
     6    2    3 ar
     7    3    4 ar
     8    3   28 1
     9    4    5 ar
    10    4   29 1
    11    5    6 ar
    12    5   15 1
    13    6    7 ar
    14    6    8 1
    15    7   30 1
    16    8    9 1
    17    8   12 2
    18    9   31 1
    19    9   10 2
    20   10   14 1
    21   10   11 1
    22   11   13 1
    23   11   12 1
    24   14   32 1
    25   14   33 1
    26   15   16 2
    27   15   17 2
    28   15   18 1
    29   18   19 1
    30   18   34 1
    31   18   35 1
    32   19   24 ar
    33   19   20 ar
    34   20   21 ar
    35   20   36 1
    36   21   22 ar
    37   21   37 1
    38   22   23 ar
    39   22   38 1
    40   23   24 ar
    41   23   39 1
    42   24   40 1
@<TRIPOS>MOLECULE
ZINC03768044
   42    44     0     0     0
SMALL
USER_CHARGES

@<TRIPOS>ATOM
      1 C1         -4.0754   12.2800    2.3402 C.3       1 <0>        -0.2186
      2 C2         -4.1274   12.6130    0.8478 C.3       1 <0>        -0.0993
      3 H1         -4.0020   13.6868    0.7087 H         1 <0>         0.1019
      4 C3         -3.0081   11.8667    0.1164 C.3       1 <0>        -0.1304
      5 C4         -3.2230   10.3829    0.2515 C.2       1 <0>         0.1257
      6 C5         -4.4642    9.8643    0.3707 C.2       1 <0>        -0.3792
      7 C6         -5.6014   10.6777    0.3905 C.2       1 <0>         0.2869
      8 O1         -6.7011   10.1728    0.5029 O.2       1 <0>        -0.3109
      9 C7         -5.4759   12.1744    0.2681 C.3       1 <0>        -0.1507
     10 H2         -5.5266   12.4390   -0.6949 H         1 <0>         0.1067
     11 C8         -6.6097   12.8495    1.0424 C.3       1 <0>        -0.1991
     12 N1         -2.1463    9.5478    0.2478 N.pl3     1 <0>        -0.2286
     13 N2         -2.3364    8.1598    0.2560 N.pl3     1 <0>        -0.2125
     14 C9         -1.2470    7.3107    0.1468 C.2       1 <0>         0.0096
     15 N3         -1.2156    5.9910    0.1289 N.2       1 <0>        -0.2584
     16 C10        -0.0644    5.3314    0.0197 C.2       1 <0>         0.0315
     17 C11         1.1015    6.0349   -0.0861 C.2       1 <0>        -0.3590
     18 S1          0.4869    7.7123   -0.0153 S.3       1 <0>         0.2234
     19 C12        -0.0487    3.8485    0.0068 C.ar      1 <0>        -0.0065
     20 C13         1.1650    3.1622   -0.0087 C.ar      1 <0>        -0.1261
     21 C14         1.1769    1.7822   -0.0211 C.ar      1 <0>        -0.1191
     22 C15        -0.0122    1.0767   -0.0183 C.ar      1 <0>        -0.1477
     23 C16        -1.2248    1.7522   -0.0088 C.ar      1 <0>         0.0645
     24 C17        -1.2463    3.1372    0.0096 C.ar      1 <0>        -0.1168
     25 O2         -2.3911    1.0546   -0.0122 O.3       1 <0>        -0.2900
     26 H3         -3.1110   12.5842    2.7470 H         1 <0>         0.0717
     27 H4         -4.8727   12.8121    2.8592 H         1 <0>         0.0884
     28 H5         -4.2055   11.2066    2.4778 H         1 <0>         0.0910
     29 H6         -2.0463   12.1359    0.5529 H         1 <0>         0.0938
     30 H7         -3.0178   12.1407   -0.9386 H         1 <0>         0.1122
     31 H8         -4.5812    8.7941    0.4568 H         1 <0>         0.1424
     32 H9         -6.5133   13.9320    0.9578 H         1 <0>         0.0698
     33 H10        -7.5686   12.5367    0.6291 H         1 <0>         0.0981
     34 H11        -6.5550   12.5609    2.0921 H         1 <0>         0.0833
     35 H12        -1.2482    9.9143    0.2395 H         1 <0>         0.2634
     36 H13        -3.2306    7.7932    0.3382 H         1 <0>         0.2958
     37 H14         2.1156    5.6766   -0.1850 H         1 <0>         0.2003
     38 H15         2.0955    3.7104   -0.0112 H         1 <0>         0.1298
     39 H16         2.1176    1.2518   -0.0334 H         1 <0>         0.1335
     40 H17         0.0024   -0.0032   -0.0281 H         1 <0>         0.1393
     41 H18        -2.1890    3.6640    0.0212 H         1 <0>         0.1626
     42 H19        -2.7263    0.8444    0.8702 H         1 <0>         0.2271
@<TRIPOS>BOND
     1    1    2 1
     2    1   26 1
     3    1   27 1
     4    1   28 1
     5    2    3 1
     6    2    9 1
     7    2    4 1
     8    4    5 1
     9    4   29 1
    10    4   30 1
    11    5    6 2
    12    5   12 1
    13    6    7 1
    14    6   31 1
    15    7    8 2
    16    7    9 1
    17    9   10 1
    18    9   11 1
    19   11   32 1
    20   11   33 1
    21   11   34 1
    22   12   13 1
    23   12   35 1
    24   13   14 1
    25   13   36 1
    26   14   18 1
    27   14   15 2
    28   15   16 1
    29   16   17 2
    30   16   19 1
    31   17   18 1
    32   17   37 1
    33   19   24 ar
    34   19   20 ar
    35   20   21 ar
    36   20   38 1
    37   21   22 ar
    38   21   39 1
    39   22   23 ar
    40   22   40 1
    41   23   24 ar
    42   23   25 1
    43   24   41 1
    44   25   42 1
@<TRIPOS>MOLECULE
ZINC03792996
   47    49     0     0     0
SMALL
USER_CHARGES

@<TRIPOS>ATOM
      1 C1         -3.4763    1.7244    2.4682 C.3       1 <0>        -0.0554
      2 N1         -3.1460    0.5899    1.6022 N.pl3     1 <0>        -0.8813
      3 S1         -2.7328    0.8490    0.0197 S.o2      1 <0>         2.7580
      4 O1         -3.7216    1.7141   -0.5218 O.2       1 <0>        -0.9029
      5 O2         -2.4471   -0.4258   -0.5395 O.2       1 <0>        -0.9061
      6 C2         -1.2190    1.7506    0.0173 C.ar      1 <0>        -0.7503
      7 C3         -0.0126    1.0758    0.0080 C.ar      1 <0>        -0.0155
      8 C4          1.1750    1.7832    0.0004 C.ar      1 <0>        -0.1427
      9 C5          1.1563    3.1654    0.0081 C.ar      1 <0>        -0.0408
     10 C6         -0.0501    3.8402    0.0228 C.ar      1 <0>        -0.1512
     11 C7         -1.2377    3.1328    0.0290 C.ar      1 <0>        -0.0219
     12 C8          2.4510    3.9366    0.0008 C.3       1 <0>        -0.0799
     13 C9          2.5288    4.8176    1.2508 C.3       1 <0>        -0.1561
     14 C10         3.8166    5.6432    1.2076 C.3       1 <0>        -0.0704
     15 N2          3.8251    6.4764   -0.0016 N.pl3     1 <0>        -0.1824
     16 C11         3.7987    5.6506   -1.2156 C.3       1 <0>        -0.1040
     17 C12         2.5104    4.8251   -1.2447 C.3       1 <0>        -0.1474
     18 C13         4.9182    7.3355   -0.0071 C.ar      1 <0>         0.1891
     19 C14         5.1144    8.2046    1.0576 C.ar      1 <0>        -0.2659
     20 C15         6.2161    9.0541    1.0408 C.ar      1 <0>         0.2249
     21 C16         7.0760    9.0036   -0.0589 C.ar      1 <0>        -0.2318
     22 C17         6.8109    8.1180   -1.0800 C.ar      1 <0>         0.0420
     23 N3          6.4522    9.9368    2.0909 N.pl3     1 <0>        -0.3361
     24 H1         -3.7204    1.3606    3.4663 H         1 <0>         0.0952
     25 H2         -2.6214    2.3982    2.5262 H         1 <0>         0.0616
     26 H3         -4.3326    2.2585    2.0566 H         1 <0>         0.0940
     27 H4         -3.1693   -0.3131    1.9558 H         1 <0>         0.2497
     28 H5          0.0021   -0.0041    0.0020 H         1 <0>         0.1605
     29 H6          2.1175    1.2560   -0.0111 H         1 <0>         0.1374
     30 H7         -0.0647    4.9201    0.0291 H         1 <0>         0.1330
     31 H8         -2.1802    3.6601    0.0401 H         1 <0>         0.1579
     32 H9          3.2896    3.2404   -0.0080 H         1 <0>         0.1016
     33 H10         1.6685    5.4863    1.2788 H         1 <0>         0.1126
     34 H11         2.5300    4.1877    2.1404 H         1 <0>         0.1174
     35 H12         4.6768    4.9740    1.1936 H         1 <0>         0.0840
     36 H13         3.8679    6.2822    2.0892 H         1 <0>         0.1119
     37 H14         4.6590    4.9813   -1.2183 H         1 <0>         0.0749
     38 H15         3.8371    6.2950   -2.0939 H         1 <0>         0.1009
     39 H16         2.4984    4.2007   -2.1381 H         1 <0>         0.1176
     40 H17         1.6495    5.4935   -1.2564 H         1 <0>         0.1169
     41 H18         4.4246    8.2179    1.8885 H         1 <0>         0.1919
     42 H19         7.9385    9.6517   -0.1082 H         1 <0>         0.1888
     43 H20         7.4726    8.0750   -1.9325 H         1 <0>         0.1909
     44 H21         7.2217   10.5268    2.0648 H         1 <0>         0.2533
     45 H22         5.8473    9.9618    2.8487 H         1 <0>         0.2526
     46 N4          5.7459    7.2696   -1.0918 N.ar      1 <0>        -0.1861
     47 H23         5.5754    6.6200   -1.8685 H         1 <0>         0.3095
@<TRIPOS>BOND
     1    1    2 1
     2    1   24 1
     3    1   25 1
     4    1   26 1
     5    2    3 1
     6    2   27 1
     7    3    4 2
     8    3    5 2
     9    3    6 1
    10    6   11 ar
    11    6    7 ar
    12    7    8 ar
    13    7   28 1
    14    8    9 ar
    15    8   29 1
    16    9   10 ar
    17    9   12 1
    18   10   11 ar
    19   10   30 1
    20   11   31 1
    21   12   17 1
    22   12   13 1
    23   12   32 1
    24   13   14 1
    25   13   33 1
    26   13   34 1
    27   14   15 1
    28   14   35 1
    29   14   36 1
    30   15   16 1
    31   15   18 1
    32   16   17 1
    33   16   37 1
    34   16   38 1
    35   17   39 1
    36   17   40 1
    37   18   19 ar
    38   18   46 ar
    39   19   20 ar
    40   19   41 1
    41   20   21 ar
    42   20   23 1
    43   21   22 ar
    44   21   42 1
    45   22   43 1
    46   22   46 ar
    47   23   44 1
    48   23   45 1
    49   46   47 1
@<TRIPOS>MOLECULE
ZINC03793004
   47    49     0     0     0
SMALL
USER_CHARGES

@<TRIPOS>ATOM
      1 C1         -2.4875    0.0774   -2.5580 C.3       1 <0>        -0.8247
      2 S1         -3.3946    1.0493   -1.3238 S.o2      1 <0>         2.6782
      3 O1         -4.5719    0.3597   -0.9267 O.2       1 <0>        -0.8927
      4 O2         -3.4525    2.4125   -1.7206 O.2       1 <0>        -0.9031
      5 N1         -2.4266    1.0410    0.0197 N.pl3     1 <0>        -0.8293
      6 C2         -1.1707    1.6510   -0.0206 C.ar      1 <0>         0.0494
      7 C3         -0.0216    0.8742   -0.0967 C.ar      1 <0>        -0.1287
      8 C4          1.2182    1.4808   -0.1421 C.ar      1 <0>        -0.1166
      9 C5          1.3169    2.8597   -0.1062 C.ar      1 <0>        -0.0891
     10 C6          0.1753    3.6358   -0.0242 C.ar      1 <0>        -0.1207
     11 C7         -1.0677    3.0357    0.0211 C.ar      1 <0>        -0.0992
     12 C8          2.6716    3.5180   -0.1559 C.3       1 <0>        -0.0728
     13 C9          2.8782    4.3595    1.1065 C.3       1 <0>        -0.1560
     14 C10         4.2292    5.0736    1.0222 C.3       1 <0>        -0.0708
     15 N2          4.2574    5.9312   -0.1695 N.pl3     1 <0>        -0.1813
     16 C11         4.1083    5.1395   -1.3972 C.3       1 <0>        -0.1041
     17 C12         2.7537    4.4274   -1.3851 C.3       1 <0>        -0.1479
     18 C13         5.4190    6.6943   -0.2067 C.ar      1 <0>         0.1893
     19 C14         5.7346    7.5182    0.8651 C.ar      1 <0>        -0.2658
     20 C15         6.9034    8.2713    0.8159 C.ar      1 <0>         0.2247
     21 C16         7.7079    8.1738   -0.3219 C.ar      1 <0>        -0.2322
     22 C17         7.3243    7.3382   -1.3474 C.ar      1 <0>         0.0415
     23 N3          7.2593    9.1057    1.8717 N.pl3     1 <0>        -0.3363
     24 H1         -2.4066   -0.9555   -2.2192 H         1 <0>         0.1389
     25 H2         -3.0211    0.1074   -3.5079 H         1 <0>         0.1479
     26 H3         -1.4896    0.4961   -2.6883 H         1 <0>         0.1318
     27 H4         -2.7317    0.6126    0.8347 H         1 <0>         0.2603
     28 H5         -0.0980   -0.2027   -0.1247 H         1 <0>         0.1443
     29 H6          2.1118    0.8776   -0.2054 H         1 <0>         0.1345
     30 H7          0.2559    4.7124    0.0040 H         1 <0>         0.1345
     31 H8         -1.9590    3.6425    0.0844 H         1 <0>         0.1665
     32 H9          3.4461    2.7535   -0.2160 H         1 <0>         0.0983
     33 H10         2.0806    5.0981    1.1861 H         1 <0>         0.1131
     34 H11         2.8634    3.7111    1.9825 H         1 <0>         0.1179
     35 H12         5.0273    4.3342    0.9565 H         1 <0>         0.0831
     36 H13         4.3729    5.6849    1.9131 H         1 <0>         0.1117
     37 H14         4.9070    4.3998   -1.4515 H         1 <0>         0.0739
     38 H15         4.1643    5.7988   -2.2634 H         1 <0>         0.0998
     39 H16         2.6499    3.8274   -2.2892 H         1 <0>         0.1148
     40 H17         1.9537    5.1666   -1.3450 H         1 <0>         0.1174
     41 H18         5.0847    7.5706    1.7261 H         1 <0>         0.1924
     42 H19         8.6200    8.7473   -0.3968 H         1 <0>         0.1884
     43 H20         7.9427    7.2591   -2.2293 H         1 <0>         0.1902
     44 H21         8.0747    9.6287    1.8229 H         1 <0>         0.2530
     45 H22         6.6917    9.1642    2.6561 H         1 <0>         0.2527
     46 N4          6.1909    6.5839   -1.3285 N.ar      1 <0>        -0.1865
     47 H23         5.9322    5.9696   -2.1096 H         1 <0>         0.3091
@<TRIPOS>BOND
     1    1    2 1
     2    1   24 1
     3    1   25 1
     4    1   26 1
     5    2    3 2
     6    2    4 2
     7    2    5 1
     8    5    6 1
     9    5   27 1
    10    6   11 ar
    11    6    7 ar
    12    7    8 ar
    13    7   28 1
    14    8    9 ar
    15    8   29 1
    16    9   10 ar
    17    9   12 1
    18   10   11 ar
    19   10   30 1
    20   11   31 1
    21   12   17 1
    22   12   13 1
    23   12   32 1
    24   13   14 1
    25   13   33 1
    26   13   34 1
    27   14   15 1
    28   14   35 1
    29   14   36 1
    30   15   16 1
    31   15   18 1
    32   16   17 1
    33   16   37 1
    34   16   38 1
    35   17   39 1
    36   17   40 1
    37   18   19 ar
    38   18   46 ar
    39   19   20 ar
    40   19   41 1
    41   20   21 ar
    42   20   23 1
    43   21   22 ar
    44   21   42 1
    45   22   43 1
    46   22   46 ar
    47   23   44 1
    48   23   45 1
    49   46   47 1
@<TRIPOS>MOLECULE
ZINC03798959
   45    46     0     0     0
SMALL
USER_CHARGES

@<TRIPOS>ATOM
      1 C1         -2.7182    1.3373    2.3676 C.3       1 <0>        -0.1734
      2 C2         -1.6047    1.9209    1.5366 C.ar      1 <0>        -0.0569
      3 C3         -0.6884    1.0849    0.9247 C.ar      1 <0>        -0.1433
      4 C4          0.3312    1.6159    0.1564 C.ar      1 <0>        -0.1103
      5 C5          0.4408    2.9841    0.0018 C.ar      1 <0>        -0.1298
      6 C6         -0.4743    3.8267    0.6196 C.ar      1 <0>         0.0708
      7 C7         -1.4972    3.2898    1.3912 C.ar      1 <0>        -0.1670
      8 N1         -0.3660    5.2118    0.4657 N.pl3     1 <0>        -0.2796
      9 C8          0.8775    5.7923    0.2690 C.ar      1 <0>         0.3103
     10 C9          1.0026    7.1790    0.1574 C.ar      1 <0>        -0.9697
     11 C10         2.2610    7.7133   -0.0380 C.ar      1 <0>         0.1861
     12 N2          3.3055    6.9013   -0.1133 N.ar      1 <0>        -0.3076
     13 C11         3.1576    5.5894   -0.0040 C.ar      1 <0>         0.2910
     14 N3          1.9689    5.0378    0.1894 N.ar      1 <0>        -0.3430
     15 N4          4.2736    4.7752   -0.0877 N.pl3     1 <0>        -0.3624
     16 S1         -0.4131    8.2227    0.2628 S.o2      1 <0>         2.7612
     17 O1          0.0710    9.5556    0.3546 O.2       1 <0>        -0.8527
     18 O2         -1.3033    7.8045   -0.7628 O.2       1 <0>        -0.9112
     19 N5         -1.1603    7.8903    1.7028 N.pl3     1 <0>        -0.7915
     20 C12        -0.5502    8.1962    2.8650 C.2       1 <0>         0.1796
     21 S2          0.9338    9.0497    2.8540 S.2       1 <0>        -0.3350
     22 N6         -1.1085    7.8302    4.0358 N.pl3     1 <0>        -0.3003
     23 C13        -0.4453    8.1627    5.2991 C.3       1 <0>         0.0237
     24 C14        -0.8372    9.5795    5.7233 C.3       1 <0>        -0.2294
     25 C15        -0.8778    7.1689    6.3791 C.3       1 <0>        -0.2283
     26 H1         -2.3881    1.2422    3.4020 H         1 <0>         0.0859
     27 H2         -3.5875    1.9934    2.3224 H         1 <0>         0.0788
     28 H3         -2.9845    0.3542    1.9793 H         1 <0>         0.0849
     29 H4         -0.7721    0.0147    1.0436 H         1 <0>         0.1307
     30 H5          1.0424    0.9602   -0.3238 H         1 <0>         0.1321
     31 H6          1.2374    3.3983   -0.5984 H         1 <0>         0.1730
     32 H7         -2.2105    3.9423    1.8730 H         1 <0>         0.1213
     33 H8         -1.1609    5.7669    0.4964 H         1 <0>         0.2403
     34 H9          2.3924    8.7814   -0.1281 H         1 <0>         0.2002
     35 H10         5.1504    5.1668   -0.2248 H         1 <0>         0.2460
     36 H11         4.1790    3.8131   -0.0092 H         1 <0>         0.2398
     37 H12        -2.0371    7.4755    1.7098 H         1 <0>         0.2364
     38 H13        -1.9493    7.3467    4.0420 H         1 <0>         0.2201
     39 H14         0.6353    8.1087    5.1674 H         1 <0>         0.1491
     40 H15        -1.9179    9.6335    5.8551 H         1 <0>         0.0704
     41 H16        -0.3438    9.8269    6.6633 H         1 <0>         0.0900
     42 H17        -0.5291   10.2875    4.9539 H         1 <0>         0.1120
     43 H18        -0.5986    6.1596    6.0768 H         1 <0>         0.0834
     44 H19        -0.3844    7.4163    7.3190 H         1 <0>         0.0999
     45 H20        -1.9585    7.2230    6.5108 H         1 <0>         0.0747
@<TRIPOS>BOND
     1    1    2 1
     2    1   26 1
     3    1   27 1
     4    1   28 1
     5    2    7 ar
     6    2    3 ar
     7    3    4 ar
     8    3   29 1
     9    4    5 ar
    10    4   30 1
    11    5    6 ar
    12    5   31 1
    13    6    7 ar
    14    6    8 1
    15    7   32 1
    16    8    9 1
    17    8   33 1
    18    9   14 ar
    19    9   10 ar
    20   10   11 ar
    21   10   16 1
    22   11   12 ar
    23   11   34 1
    24   12   13 ar
    25   13   14 ar
    26   13   15 1
    27   15   35 1
    28   15   36 1
    29   16   17 2
    30   16   18 2
    31   16   19 1
    32   19   20 1
    33   19   37 1
    34   20   21 2
    35   20   22 1
    36   22   23 1
    37   22   38 1
    38   23   24 1
    39   23   25 1
    40   23   39 1
    41   24   40 1
    42   24   41 1
    43   24   42 1
    44   25   43 1
    45   25   44 1
    46   25   45 1
@<TRIPOS>MOLECULE
ZINC03816083
   40    42     0     0     0
SMALL
USER_CHARGES

@<TRIPOS>ATOM
      1 C1          1.0837    3.4685    0.0708 C.3       1 <0>        -0.1550
      2 C2          1.1249    1.9781   -0.1490 C.2       1 <0>         0.0591
      3 C3          2.3171    1.3253   -0.3331 C.2       1 <0>        -0.3463
      4 S1          1.7455   -0.3557   -0.5354 S.3       1 <0>         0.3026
      5 C4          0.0468   -0.0397   -0.3626 C.2       1 <0>         0.0009
      6 N1          0.0208    1.2685   -0.1700 N.2       1 <0>        -0.2861
      7 N2         -1.0097   -0.9291   -0.4138 N.pl3     1 <0>        -0.3532
      8 C5          3.6894    1.8616   -0.3569 C.ar      1 <0>         0.1964
      9 C6          4.7840    1.0096   -0.5627 C.ar      1 <0>        -0.3047
     10 C7          6.0506    1.5587   -0.5768 C.ar      1 <0>         0.0348
     11 N3          6.1946    2.8639   -0.3968 N.ar      1 <0>        -0.2711
     12 C8          5.1434    3.6476   -0.2042 C.ar      1 <0>         0.2245
     13 N4          3.9104    3.1666   -0.1884 N.ar      1 <0>        -0.2772
     14 N5          5.3399    5.0066   -0.0203 N.pl3     1 <0>        -0.2709
     15 C9          6.6373    5.5186    0.0761 C.ar      1 <0>         0.0795
     16 C10         7.6401    4.7658    0.6736 C.ar      1 <0>        -0.1238
     17 C11         8.9219    5.2723    0.7620 C.ar      1 <0>        -0.1071
     18 C12         9.2049    6.5320    0.2666 C.ar      1 <0>        -0.1013
     19 C13         8.2076    7.2863   -0.3238 C.ar      1 <0>        -0.1047
     20 C14         6.9250    6.7835   -0.4205 C.ar      1 <0>        -0.1645
     21 C15        10.6035    7.0837    0.3700 C.3       1 <0>        -0.1173
     22 C16        10.7544    7.8475    1.6870 C.3       1 <0>         0.0019
     23 O1         12.0806    8.3707    1.7850 O.3       1 <0>        -0.3582
     24 H1          1.1496    3.6803    1.1380 H         1 <0>         0.0952
     25 H2          1.9230    3.9351   -0.4448 H         1 <0>         0.1201
     26 H3          0.1486    3.8679   -0.3218 H         1 <0>         0.0887
     27 H4         -1.9185   -0.6098   -0.2995 H         1 <0>         0.2458
     28 H5         -0.8424   -1.8727   -0.5641 H         1 <0>         0.2416
     29 H6          4.6396   -0.0510   -0.7066 H         1 <0>         0.1477
     30 H7          6.9155    0.9310   -0.7324 H         1 <0>         0.1662
     31 H8          4.5773    5.6028    0.0416 H         1 <0>         0.2538
     32 H9          7.4187    3.7838    1.0646 H         1 <0>         0.1574
     33 H10         9.7031    4.6857    1.2225 H         1 <0>         0.1332
     34 H11         8.4320    8.2696   -0.7099 H         1 <0>         0.1325
     35 H12         6.1466    7.3730   -0.8820 H         1 <0>         0.1307
     36 H13        11.3207    6.2634    0.3415 H         1 <0>         0.0996
     37 H14        10.7904    7.7589   -0.4651 H         1 <0>         0.0986
     38 H15        10.0372    8.6678    1.7155 H         1 <0>         0.0601
     39 H16        10.5675    7.1723    2.5221 H         1 <0>         0.0609
     40 H17        12.2481    8.8681    2.5972 H         1 <0>         0.2095
@<TRIPOS>BOND
     1    1    2 1
     2    1   24 1
     3    1   25 1
     4    1   26 1
     5    2    6 1
     6    2    3 2
     7    3    4 1
     8    3    8 1
     9    4    5 1
    10    5    6 2
    11    5    7 1
    12    7   27 1
    13    7   28 1
    14    8   13 ar
    15    8    9 ar
    16    9   10 ar
    17    9   29 1
    18   10   11 ar
    19   10   30 1
    20   11   12 ar
    21   12   13 ar
    22   12   14 1
    23   14   15 1
    24   14   31 1
    25   15   20 ar
    26   15   16 ar
    27   16   17 ar
    28   16   32 1
    29   17   18 ar
    30   17   33 1
    31   18   19 ar
    32   18   21 1
    33   19   20 ar
    34   19   34 1
    35   20   35 1
    36   21   22 1
    37   21   36 1
    38   21   37 1
    39   22   23 1
    40   22   38 1
    41   22   39 1
    42   23   40 1
@<TRIPOS>MOLECULE
ZINC03817246
   44    47     0     0     0
SMALL
USER_CHARGES

@<TRIPOS>ATOM
      1 C1          9.1267   -1.5052    0.2288 C.ar      1 <0>        -0.1012
      2 C2          7.8627   -1.7407    0.7404 C.ar      1 <0>        -0.1354
      3 C3          6.8882   -0.7683    0.6542 C.ar      1 <0>        -0.0953
      4 C4          7.1797    0.4560    0.0495 C.ar      1 <0>        -0.1470
      5 C5          8.4557    0.6852   -0.4689 C.ar      1 <0>        -0.0688
      6 C6          9.4221   -0.2943   -0.3722 C.ar      1 <0>        -0.1402
      7 C7          6.1399    1.5029   -0.0468 C.2       1 <0>         0.3538
      8 O1          6.4610    2.6685   -0.1861 O.2       1 <0>        -0.2836
      9 C8          4.7221    1.1367    0.0255 C.2       1 <0>        -0.3557
     10 C9          3.6351    1.9572    0.0767 C.2       1 <0>        -0.0427
     11 C10         2.3476    1.4057    0.1436 C.ar      1 <0>        -0.2916
     12 C11         1.0922    2.0639    0.2044 C.ar      1 <0>         0.0965
     13 N1         -0.0091    1.3509    0.2630 N.ar      1 <0>        -0.2817
     14 C12         0.0037    0.0216    0.2677 C.ar      1 <0>         0.2490
     15 N2          1.1436   -0.6545    0.2129 N.ar      1 <0>        -0.2476
     16 C13         2.2896   -0.0137    0.1523 C.ar      1 <0>        -0.0678
     17 S1          3.9958   -0.4929    0.0686 S.3       1 <0>         0.3941
     18 N3         -1.1924   -0.6684    0.3306 N.pl3     1 <0>        -0.3177
     19 C14        -2.4590    0.0652    0.3911 C.3       1 <0>         0.0480
     20 C15        -2.7651    0.4352    1.8438 C.3       1 <0>        -0.1729
     21 C16        -2.8735   -0.8396    2.6829 C.3       1 <0>        -0.1979
     22 C17        -3.9986   -1.7182    2.1325 C.3       1 <0>         0.0447
     23 C18        -3.6925   -2.0883    0.6798 C.3       1 <0>        -0.1538
     24 C19        -3.5841   -0.8135   -0.1593 C.3       1 <0>        -0.1735
     25 O2         -4.0998   -2.9089    2.9162 O.3       1 <0>        -0.3508
     26 H1          9.8859   -2.2701    0.2985 H         1 <0>         0.1324
     27 H2          7.6386   -2.6882    1.2078 H         1 <0>         0.1356
     28 H3          5.9019   -0.9537    1.0533 H         1 <0>         0.1446
     29 H4          8.6864    1.6283   -0.9419 H         1 <0>         0.1499
     30 H5         10.4104   -0.1172   -0.7701 H         1 <0>         0.1357
     31 H6          3.7650    3.0293    0.0658 H         1 <0>         0.1569
     32 H7          1.0426    3.1428    0.2021 H         1 <0>         0.1693
     33 H8         -1.1930   -1.6384    0.3345 H         1 <0>         0.2545
     34 H9         -2.3818    0.9734   -0.2067 H         1 <0>         0.1219
     35 H10        -1.9635    1.0612    2.2359 H         1 <0>         0.1027
     36 H11        -3.7075    0.9811    1.8888 H         1 <0>         0.0879
     37 H12        -3.0915   -0.5759    3.7178 H         1 <0>         0.0818
     38 H13        -1.9310   -1.3854    2.6378 H         1 <0>         0.1010
     39 H14        -4.9410   -1.1724    2.1775 H         1 <0>         0.0704
     40 H15        -4.4941   -2.7143    0.2877 H         1 <0>         0.0989
     41 H16        -2.7501   -2.6342    0.6347 H         1 <0>         0.0903
     42 H17        -4.5265   -0.2677   -0.1142 H         1 <0>         0.0976
     43 H18        -3.3661   -1.0771   -1.1942 H         1 <0>         0.0964
     44 H19        -4.2930   -2.7497    3.8502 H         1 <0>         0.2115
@<TRIPOS>BOND
     1    1    6 ar
     2    1    2 ar
     3    1   26 1
     4    2    3 ar
     5    2   27 1
     6    3    4 ar
     7    3   28 1
     8    4    5 ar
     9    4    7 1
    10    5    6 ar
    11    5   29 1
    12    6   30 1
    13    7    8 2
    14    7    9 1
    15    9   17 1
    16    9   10 2
    17   10   11 1
    18   10   31 1
    19   11   16 ar
    20   11   12 ar
    21   12   13 ar
    22   12   32 1
    23   13   14 ar
    24   14   15 ar
    25   14   18 1
    26   15   16 ar
    27   16   17 1
    28   18   19 1
    29   18   33 1
    30   19   24 1
    31   19   20 1
    32   19   34 1
    33   20   21 1
    34   20   35 1
    35   20   36 1
    36   21   22 1
    37   21   37 1
    38   21   38 1
    39   22   23 1
    40   22   25 1
    41   22   39 1
    42   23   24 1
    43   23   40 1
    44   23   41 1
    45   24   42 1
    46   24   43 1
    47   25   44 1
@<TRIPOS>MOLECULE
ZINC03818681
   41    42     0     0     0
SMALL
USER_CHARGES

@<TRIPOS>ATOM
      1 C1          9.5361    8.3058    1.7561 C.3       1 <0>        -0.2119
      2 C2          8.1106    7.7610    1.8659 C.3       1 <0>        -0.0157
      3 O1          7.5456    7.6381    0.5591 O.3       1 <0>        -0.2131
      4 C3          6.2744    7.1646    0.4785 C.ar      1 <0>         0.1058
      5 C4          5.6639    7.0197   -0.7588 C.ar      1 <0>        -0.1560
      6 C5          4.3717    6.5377   -0.8380 C.ar      1 <0>        -0.0719
      7 C6          3.6868    6.1997    0.3145 C.ar      1 <0>        -0.1071
      8 C7          4.2910    6.3484    1.5493 C.ar      1 <0>        -0.0713
      9 C8          5.5850    6.8247    1.6335 C.ar      1 <0>        -0.2195
     10 C9          2.2773    5.6741    0.2252 C.3       1 <0>        -0.1392
     11 C10         2.3079    4.1723    0.1037 C.2       1 <0>         0.2975
     12 O2          3.3698    3.5865    0.0910 O.2       1 <0>        -0.3336
     13 N1          1.1553    3.4802    0.0093 N.am      1 <0>        -0.3323
     14 C11         1.1774    2.0860    0.0079 C.ar      1 <0>         0.0914
     15 C12         0.2403    1.3777   -0.7379 C.ar      1 <0>        -0.1754
     16 C13         0.2595    0.0012   -0.7418 C.ar      1 <0>        -0.0436
     17 C14         1.2217   -0.6847    0.0043 C.ar      1 <0>        -0.1409
     18 C15         2.1615    0.0297    0.7522 C.ar      1 <0>        -0.0898
     19 C16         2.1367    1.4062    0.7517 C.ar      1 <0>        -0.1383
     20 C17         1.2450   -2.1605    0.0028 C.2       1 <0>         0.3639
     21 O3          0.4265   -2.7808   -0.6480 O.2       1 <0>        -0.3395
     22 N2          2.1736   -2.8205    0.7229 N.am      1 <0>        -0.3009
     23 O4          2.1960   -4.2364    0.7215 O.3       1 <0>        -0.1800
     24 H1         10.1416    7.6219    1.1613 H         1 <0>         0.0894
     25 H2          9.5152    9.2841    1.2758 H         1 <0>         0.0881
     26 H3          9.9670    8.3995    2.7529 H         1 <0>         0.0860
     27 H4          7.5051    8.4449    2.4607 H         1 <0>         0.0730
     28 H5          8.1315    6.7827    2.3461 H         1 <0>         0.0757
     29 H6          6.1983    7.2840   -1.6594 H         1 <0>         0.1448
     30 H7          3.8962    6.4245   -1.8011 H         1 <0>         0.1332
     31 H8          3.7522    6.0882    2.4484 H         1 <0>         0.1276
     32 H9          6.0581    6.9365    2.5979 H         1 <0>         0.1352
     33 H10         1.7857    6.0994   -0.6498 H         1 <0>         0.1070
     34 H11         1.7272    5.9548    1.1234 H         1 <0>         0.1070
     35 H12         0.3104    3.9520   -0.0577 H         1 <0>         0.2341
     36 H13        -0.5002    1.9085   -1.3178 H         1 <0>         0.1370
     37 H14        -0.4684   -0.5480   -1.3205 H         1 <0>         0.1615
     38 H15         2.9062   -0.4974    1.3301 H         1 <0>         0.1253
     39 H16         2.8629    1.9589    1.3292 H         1 <0>         0.1637
     40 H17         2.8266   -2.3257    1.2421 H         1 <0>         0.2274
     41 H18         2.8970   -4.6192    1.2666 H         1 <0>         0.2053
@<TRIPOS>BOND
     1    1    2 1
     2    1   24 1
     3    1   25 1
     4    1   26 1
     5    2    3 1
     6    2   27 1
     7    2   28 1
     8    3    4 1
     9    4    9 ar
    10    4    5 ar
    11    5    6 ar
    12    5   29 1
    13    6    7 ar
    14    6   30 1
    15    7    8 ar
    16    7   10 1
    17    8    9 ar
    18    8   31 1
    19    9   32 1
    20   10   11 1
    21   10   33 1
    22   10   34 1
    23   11   12 2
    24   11   13 am
    25   13   14 1
    26   13   35 1
    27   14   19 ar
    28   14   15 ar
    29   15   16 ar
    30   15   36 1
    31   16   17 ar
    32   16   37 1
    33   17   18 ar
    34   17   20 1
    35   18   19 ar
    36   18   38 1
    37   19   39 1
    38   20   21 2
    39   20   22 am
    40   22   23 1
    41   22   40 1
    42   23   41 1
@<TRIPOS>MOLECULE
ZINC03819371
   43    46     0     0     0
SMALL
USER_CHARGES

@<TRIPOS>ATOM
      1 C1         -1.5289   -4.2361    1.9249 C.3       1 <0>        -0.1835
      2 C2         -0.6937   -4.9733    0.9100 C.ar      1 <0>        -0.0371
      3 C3         -0.6804   -6.3547    0.9013 C.ar      1 <0>        -0.1379
      4 C4          0.0860   -7.0375   -0.0215 C.ar      1 <0>        -0.0993
      5 C5          0.8491   -6.3341   -0.9562 C.ar      1 <0>        -0.1333
      6 C6          0.8350   -4.9407   -0.9551 C.ar      1 <0>        -0.0481
      7 C7          0.0598   -4.2593   -0.0215 C.ar      1 <0>        -0.0570
      8 C8          0.0397   -2.7765   -0.0133 C.ar      1 <0>        -0.0256
      9 C9          1.2385   -2.0632   -0.0204 C.ar      1 <0>        -0.1170
     10 C10         1.2211   -0.6867   -0.0128 C.ar      1 <0>        -0.0856
     11 C11         0.0021   -0.0041    0.0020 C.ar      1 <0>         0.0028
     12 C12        -1.1980   -0.7197    0.0149 C.ar      1 <0>        -0.1098
     13 C13        -1.1780   -2.0961    0.0019 C.ar      1 <0>        -0.1217
     14 C14        -0.0179    1.4723    0.0101 C.2       1 <0>        -0.0319
     15 N1          1.0279    2.2629    0.0044 N.2       1 <0>        -0.0641
     16 N2          0.6370    3.4886    0.0147 N.2       1 <0>        -0.1663
     17 C15        -0.6748    3.5288    0.0275 C.2       1 <0>         0.1255
     18 O1         -1.1178    2.2577    0.0190 O.3       1 <0>        -0.1207
     19 N3         -1.4572    4.6664    0.0404 N.pl3     1 <0>        -0.3699
     20 C16         1.6703   -7.0662   -1.9442 C.2       1 <0>         0.3526
     21 O2          2.3341   -6.4526   -2.7567 O.2       1 <0>        -0.3669
     22 N4          1.6827   -8.4139   -1.9438 N.am      1 <0>        -0.3587
     23 C17         2.4963   -9.1392   -2.9226 C.3       1 <0>        -0.0122
     24 C18         1.8616  -10.3494   -3.6108 C.3       1 <0>        -0.2339
     25 C19         2.9499  -10.5534   -2.5550 C.3       1 <0>        -0.2342
     26 H1         -2.5265   -4.0659    1.5198 H         1 <0>         0.0880
     27 H2         -1.6031   -4.8308    2.8354 H         1 <0>         0.0840
     28 H3         -1.0614   -3.2784    2.1535 H         1 <0>         0.0975
     29 H4         -1.2686   -6.9026    1.6225 H         1 <0>         0.1355
     30 H5          0.0954   -8.1175   -0.0210 H         1 <0>         0.1248
     31 H6          1.4235   -4.3919   -1.6754 H         1 <0>         0.1635
     32 H7          2.1806   -2.5911   -0.0314 H         1 <0>         0.1460
     33 H8          2.1494   -0.1347   -0.0179 H         1 <0>         0.1594
     34 H9         -2.1408   -0.1932    0.0312 H         1 <0>         0.1413
     35 H10        -2.1055   -2.6495    0.0081 H         1 <0>         0.1402
     36 H11        -1.0398    5.5420    0.0409 H         1 <0>         0.2632
     37 H12        -2.4241    4.5899    0.0489 H         1 <0>         0.2374
     38 H13         1.1529   -8.9036   -1.2954 H         1 <0>         0.2245
     39 H14         3.1812   -8.5278   -3.5100 H         1 <0>         0.1677
     40 H15         0.8386  -10.6059   -3.3352 H         1 <0>         0.1120
     41 H16         2.1288  -10.5342   -4.6513 H         1 <0>         0.1195
     42 H17         3.9331  -10.8725   -2.9008 H         1 <0>         0.1197
     43 H18         2.6434  -10.9440   -1.5846 H         1 <0>         0.1099
@<TRIPOS>BOND
     1    1    2 1
     2    1   26 1
     3    1   27 1
     4    1   28 1
     5    2    7 ar
     6    2    3 ar
     7    3    4 ar
     8    3   29 1
     9    4    5 ar
    10    4   30 1
    11    5    6 ar
    12    5   20 1
    13    6    7 ar
    14    6   31 1
    15    7    8 1
    16    8   13 ar
    17    8    9 ar
    18    9   10 ar
    19    9   32 1
    20   10   11 ar
    21   10   33 1
    22   11   12 ar
    23   11   14 1
    24   12   13 ar
    25   12   34 1
    26   13   35 1
    27   14   18 1
    28   14   15 2
    29   15   16 1
    30   16   17 2
    31   17   18 1
    32   17   19 1
    33   19   36 1
    34   19   37 1
    35   20   21 2
    36   20   22 am
    37   22   23 1
    38   22   38 1
    39   23   25 1
    40   23   24 1
    41   23   39 1
    42   24   25 1
    43   24   40 1
    44   24   41 1
    45   25   42 1
    46   25   43 1
@<TRIPOS>MOLECULE
ZINC03819372
   40    43     0     0     0
SMALL
USER_CHARGES

@<TRIPOS>ATOM
      1 C1         -5.4759   -2.1676    1.9689 C.3       1 <0>        -0.1790
      2 C2         -5.5783   -3.2864    0.9645 C.ar      1 <0>        -0.0824
      3 C3         -4.5619   -3.4764    0.0284 C.ar      1 <0>         0.0099
      4 C4         -4.6594   -4.5057   -0.9024 C.ar      1 <0>        -0.0708
      5 C5         -5.7686   -5.3497   -0.8875 C.ar      1 <0>        -0.1175
      6 C6         -6.7800   -5.1516    0.0542 C.ar      1 <0>        -0.1621
      7 C7         -6.6797   -4.1230    0.9732 C.ar      1 <0>         0.0801
      8 F1         -7.6608   -3.9349    1.8828 F         1 <0>        -0.1141
      9 C8         -5.8763   -6.4493   -1.8703 C.2       1 <0>         0.3554
     10 O1         -4.9950   -6.6205   -2.6896 O.2       1 <0>        -0.3654
     11 N1         -6.9517   -7.2616   -1.8575 N.am      1 <0>        -0.3631
     12 C9         -7.0584   -8.3509   -2.8312 C.3       1 <0>        -0.0041
     13 C10        -8.4136   -8.5623   -3.5092 C.3       1 <0>        -0.2385
     14 C11        -7.9231   -9.5550   -2.4523 C.3       1 <0>        -0.2396
     15 C12        -3.3816   -2.5783    0.0215 C.ar      1 <0>        -0.1047
     16 C13        -2.0955   -3.1177    0.0058 C.ar      1 <0>        -0.1178
     17 C14        -0.9991   -2.2845   -0.0007 C.ar      1 <0>        -0.1248
     18 C15        -1.1752   -0.8997    0.0084 C.ar      1 <0>         0.0954
     19 C16        -2.4626   -0.3606    0.0295 C.ar      1 <0>        -0.1290
     20 C17        -3.5582   -1.1949    0.0301 C.ar      1 <0>        -0.1225
     21 C18         0.0021   -0.0041    0.0020 C.2       1 <0>        -0.1689
     22 N2          1.3352    1.7393   -0.0013 N.2       1 <0>        -0.1743
     23 N3          2.0343    0.6565   -0.0138 N.2       1 <0>        -0.1319
     24 N4          1.2661   -0.3726   -0.0120 N.2       1 <0>        -0.2487
     25 H1         -5.9344   -1.2679    1.5586 H         1 <0>         0.0901
     26 H2         -5.9928   -2.4534    2.8851 H         1 <0>         0.0799
     27 H3         -4.4265   -1.9724    2.1896 H         1 <0>         0.1132
     28 H4         -3.8764   -4.6529   -1.6315 H         1 <0>         0.1684
     29 H5         -7.6419   -5.8023    0.0649 H         1 <0>         0.1267
     30 H6         -7.6551   -7.1249   -1.2037 H         1 <0>         0.2253
     31 H7         -6.1638   -8.5405   -3.4244 H         1 <0>         0.1666
     32 H8         -9.2258   -7.8907   -3.2309 H         1 <0>         0.1119
     33 H9         -8.4106   -8.8912   -4.5484 H         1 <0>         0.1149
     34 H10        -7.5976  -10.5366   -2.7966 H         1 <0>         0.1147
     35 H11        -8.4122   -9.5367   -1.4784 H         1 <0>         0.1093
     36 H12        -1.9594   -4.1891   -0.0009 H         1 <0>         0.1201
     37 H13        -0.0033   -2.7023   -0.0132 H         1 <0>         0.1562
     38 H14        -2.5995    0.7107    0.0410 H         1 <0>         0.1538
     39 H15        -4.5544   -0.7779    0.0422 H         1 <0>         0.1180
     40 N5          0.0062    1.3358    0.0092 N.2       1 <0>        -0.2509
@<TRIPOS>BOND
     1    1    2 1
     2    1   25 1
     3    1   26 1
     4    1   27 1
     5    2    7 ar
     6    2    3 ar
     7    3    4 ar
     8    3   15 1
     9    4    5 ar
    10    4   28 1
    11    5    6 ar
    12    5    9 1
    13    6    7 ar
    14    6   29 1
    15    7    8 1
    16    9   10 2
    17    9   11 am
    18   11   12 1
    19   11   30 1
    20   12   14 1
    21   12   13 1
    22   12   31 1
    23   13   14 1
    24   13   32 1
    25   13   33 1
    26   14   34 1
    27   14   35 1
    28   15   20 ar
    29   15   16 ar
    30   16   17 ar
    31   16   36 1
    32   17   18 ar
    33   17   37 1
    34   18   19 ar
    35   18   21 1
    36   19   20 ar
    37   19   38 1
    38   20   39 1
    39   21   24 2
    40   21   40 1
    41   22   23 2
    42   22   40 1
    43   23   24 1
@<TRIPOS>MOLECULE
ZINC03819466
   45    47     0     0     0
SMALL
USER_CHARGES

@<TRIPOS>ATOM
      1 C1         -7.8054   -5.8984   -1.8788 C.3       1 <0>        -0.2132
      2 C2         -6.9535   -4.6722   -1.5449 C.3       1 <0>         0.0011
      3 C3         -7.5769   -3.9240   -0.3648 C.3       1 <0>        -0.2025
      4 C4         -6.8935   -3.7462   -2.7615 C.3       1 <0>        -0.2026
      5 C5         -5.5594   -5.1132   -1.1802 C.2       1 <0>        -0.0826
      6 C6         -4.5154   -4.3062   -0.8226 C.2       1 <0>        -0.0888
      7 N1         -3.4445   -5.1054   -0.5828 N.2       1 <0>        -0.1833
      8 C7         -3.7904   -6.3471   -0.7687 C.2       1 <0>        -0.0812
      9 N2         -5.0947   -6.3939   -1.1436 N.pl3     1 <0>        -0.1764
     10 H1         -5.6193   -7.2187   -1.3546 H         1 <0>         0.2556
     11 C8         -4.5452   -2.8418   -0.7225 C.2       1 <0>        -0.0788
     12 C9         -3.4583   -2.1709   -0.2657 C.2       1 <0>        -0.0276
     13 C10        -3.4252   -0.7046   -0.3042 C.2       1 <0>         0.3469
     14 O1         -4.4487   -0.0732   -0.4938 O.2       1 <0>        -0.3510
     15 N3         -2.2526   -0.0592   -0.1218 N.am      1 <0>        -0.3107
     16 H2         -2.2187    0.9101   -0.1400 H         1 <0>         0.2604
     17 C11        -1.0868   -0.8008    0.0879 C.2       1 <0>        -0.0351
     18 C12         0.1262   -0.2085   -0.0162 C.2       1 <0>        -0.1119
     19 C13         0.2329    1.1625   -0.5379 C.ar      1 <0>        -0.0593
     20 C14        -0.6187    1.5939   -1.5604 C.ar      1 <0>        -0.1346
     21 C15        -0.5153    2.8821   -2.0410 C.ar      1 <0>        -0.1246
     22 C16         0.4344    3.7444   -1.5212 C.ar      1 <0>        -0.1228
     23 C17         1.2842    3.3236   -0.5131 C.ar      1 <0>        -0.1263
     24 C18         1.1903    2.0401   -0.0182 C.ar      1 <0>        -0.1091
     25 C19        -1.1877   -2.2289    0.4287 C.2       1 <0>         0.3459
     26 O2         -0.2226   -2.8240    0.8707 O.2       1 <0>        -0.3448
     27 N4         -2.3598   -2.8733    0.2464 N.am      1 <0>        -0.2930
     28 H3         -2.4406   -3.8142    0.4677 H         1 <0>         0.2869
     29 H4         -7.8481   -6.5580   -1.0121 H         1 <0>         0.0727
     30 H5         -8.8137   -5.5794   -2.1427 H         1 <0>         0.0893
     31 H6         -7.3613   -6.4313   -2.7195 H         1 <0>         0.0727
     32 H7         -6.9699   -3.0505   -0.1270 H         1 <0>         0.0910
     33 H8         -8.5852   -3.6050   -0.6287 H         1 <0>         0.0809
     34 H9         -7.6196   -4.5837    0.5018 H         1 <0>         0.0799
     35 H10        -6.4494   -4.2792   -3.6022 H         1 <0>         0.0802
     36 H11        -7.9018   -3.4272   -3.0253 H         1 <0>         0.0810
     37 H12        -6.2866   -2.8726   -2.5236 H         1 <0>         0.0900
     38 H13        -3.1423   -7.2026   -0.6481 H         1 <0>         0.2062
     39 H14        -5.4325   -2.2986   -1.0125 H         1 <0>         0.1716
     40 H15         1.0156   -0.7428    0.2839 H         1 <0>         0.1715
     41 H16        -1.3575    0.9209   -1.9699 H         1 <0>         0.1428
     42 H17        -1.1747    3.2180   -2.8276 H         1 <0>         0.1338
     43 H18         0.5129    4.7510   -1.9046 H         1 <0>         0.1308
     44 H19         2.0226    4.0024   -0.1127 H         1 <0>         0.1324
     45 H20         1.8544    1.7130    0.7682 H         1 <0>         0.1368
@<TRIPOS>BOND
     1    1    2 1
     2    1   29 1
     3    1   30 1
     4    1   31 1
     5    2    3 1
     6    2    4 1
     7    2    5 1
     8    3   32 1
     9    3   33 1
    10    3   34 1
    11    4   35 1
    12    4   36 1
    13    4   37 1
    14    5    9 1
    15    5    6 2
    16    6    7 1
    17    6   11 1
    18    7    8 2
    19    8    9 1
    20    8   38 1
    21    9   10 1
    22   11   12 2
    23   11   39 1
    24   12   27 1
    25   12   13 1
    26   13   14 2
    27   13   15 am
    28   15   16 1
    29   15   17 1
    30   17   18 2
    31   17   25 1
    32   18   19 1
    33   18   40 1
    34   19   24 ar
    35   19   20 ar
    36   20   21 ar
    37   20   41 1
    38   21   22 ar
    39   21   42 1
    40   22   23 ar
    41   22   43 1
    42   23   24 ar
    43   23   44 1
    44   24   45 1
    45   25   26 2
    46   25   27 am
    47   27   28 1
@<TRIPOS>MOLECULE
ZINC03819466
   46    48     0     0     0
SMALL
USER_CHARGES

@<TRIPOS>ATOM
      1 C1         -7.8054   -5.8984   -1.8788 C.3       1 <0>        -0.2199
      2 C2         -6.9535   -4.6722   -1.5449 C.3       1 <0>        -0.0123
      3 C3         -7.5769   -3.9240   -0.3648 C.3       1 <0>        -0.2074
      4 C4         -6.8935   -3.7462   -2.7615 C.3       1 <0>        -0.2075
      5 C5         -5.5594   -5.1132   -1.1802 C.2       1 <0>        -0.0094
      6 C6         -4.5154   -4.3062   -0.8226 C.2       1 <0>        -0.0344
      7 C7         -3.7904   -6.3471   -0.7687 C.cat     1 <0>         0.0018
      8 N1         -5.0947   -6.3939   -1.1436 N.pl3     1 <0>        -0.1107
      9 H1         -5.6193   -7.2187   -1.3546 H         1 <0>         0.3137
     10 C8         -4.5452   -2.8418   -0.7225 C.2       1 <0>        -0.1518
     11 C9         -3.4583   -2.1709   -0.2657 C.2       1 <0>         0.0376
     12 C10        -3.4252   -0.7046   -0.3042 C.2       1 <0>         0.3391
     13 O1         -4.4487   -0.0732   -0.4938 O.2       1 <0>        -0.3132
     14 N2         -2.2526   -0.0592   -0.1218 N.am      1 <0>        -0.2925
     15 H2         -2.2187    0.9101   -0.1400 H         1 <0>         0.2814
     16 C11        -1.0868   -0.8008    0.0879 C.2       1 <0>        -0.0898
     17 C12         0.1262   -0.2085   -0.0162 C.2       1 <0>        -0.0252
     18 C13         0.2329    1.1625   -0.5379 C.ar      1 <0>        -0.0988
     19 C14        -0.6187    1.5939   -1.5604 C.ar      1 <0>        -0.1292
     20 C15        -0.5153    2.8821   -2.0410 C.ar      1 <0>        -0.1228
     21 C16         0.4344    3.7444   -1.5212 C.ar      1 <0>        -0.0971
     22 C17         1.2842    3.3236   -0.5131 C.ar      1 <0>        -0.1201
     23 C18         1.1903    2.0401   -0.0182 C.ar      1 <0>        -0.0902
     24 C19        -1.1877   -2.2289    0.4287 C.2       1 <0>         0.3562
     25 O2         -0.2226   -2.8240    0.8707 O.2       1 <0>        -0.3086
     26 N3         -2.3598   -2.8733    0.2464 N.am      1 <0>        -0.3411
     27 H3         -2.4406   -3.8142    0.4677 H         1 <0>         0.2250
     28 H4         -7.8481   -6.5580   -1.0121 H         1 <0>         0.0785
     29 H5         -8.8137   -5.5794   -2.1427 H         1 <0>         0.1217
     30 H6         -7.3613   -6.4313   -2.7195 H         1 <0>         0.0782
     31 H7         -6.9699   -3.0505   -0.1270 H         1 <0>         0.0909
     32 H8         -8.5852   -3.6050   -0.6287 H         1 <0>         0.1132
     33 H9         -7.6196   -4.5837    0.5018 H         1 <0>         0.0877
     34 H10        -6.4494   -4.2792   -3.6022 H         1 <0>         0.0877
     35 H11        -7.9018   -3.4272   -3.0253 H         1 <0>         0.1133
     36 H12        -6.2866   -2.8726   -2.5236 H         1 <0>         0.0895
     37 H13        -3.1423   -7.2026   -0.6481 H         1 <0>         0.2498
     38 H14        -5.4325   -2.2986   -1.0125 H         1 <0>         0.2133
     39 H15         1.0156   -0.7428    0.2839 H         1 <0>         0.1762
     40 H16        -1.3575    0.9209   -1.9699 H         1 <0>         0.1339
     41 H17        -1.1747    3.2180   -2.8276 H         1 <0>         0.1431
     42 H18         0.5129    4.7510   -1.9046 H         1 <0>         0.1451
     43 H19         2.0226    4.0024   -0.1127 H         1 <0>         0.1469
     44 H20         1.8544    1.7130    0.7682 H         1 <0>         0.1429
     45 N4         -3.4469   -5.1062   -0.5835 N.pl3     1 <0>        -0.1090
     46 H21        -2.5140   -4.7834   -0.3010 H         1 <0>         0.3247
@<TRIPOS>BOND
     1    1    2 1
     2    1   28 1
     3    1   29 1
     4    1   30 1
     5    2    3 1
     6    2    4 1
     7    2    5 1
     8    3   31 1
     9    3   32 1
    10    3   33 1
    11    4   34 1
    12    4   35 1
    13    4   36 1
    14    5    8 1
    15    5    6 2
    16    6   10 1
    17    6   45 1
    18    7    8 1
    19    7   37 1
    20    7   45 2
    21    8    9 1
    22   10   11 2
    23   10   38 1
    24   11   26 1
    25   11   12 1
    26   12   13 2
    27   12   14 am
    28   14   15 1
    29   14   16 1
    30   16   17 2
    31   16   24 1
    32   17   18 1
    33   17   39 1
    34   18   23 ar
    35   18   19 ar
    36   19   20 ar
    37   19   40 1
    38   20   21 ar
    39   20   41 1
    40   21   22 ar
    41   21   42 1
    42   22   23 ar
    43   22   43 1
    44   23   44 1
    45   24   25 2
    46   24   26 am
    47   26   27 1
    48   45   46 1
@<TRIPOS>MOLECULE
ZINC03819467
   45    47     0     0     0
SMALL
USER_CHARGES

@<TRIPOS>ATOM
      1 C1         -4.9377   -2.3769    0.3156 C.3       1 <0>        -0.2133
      2 C2         -3.4817   -2.0721   -0.0422 C.3       1 <0>         0.0006
      3 C3         -3.3157   -2.0904   -1.5631 C.3       1 <0>        -0.2024
      4 C4         -2.5705   -3.1302    0.5831 C.3       1 <0>        -0.2026
      5 C5         -3.1085   -0.7114    0.4874 C.2       1 <0>        -0.0806
      6 C6         -1.8954   -0.0929    0.3658 C.2       1 <0>        -0.0912
      7 N1         -1.9861    1.1107    0.9873 N.2       1 <0>        -0.1831
      8 C7         -3.1887    1.2522    1.4666 C.2       1 <0>        -0.0811
      9 N2         -3.9150    0.1411    1.1804 N.pl3     1 <0>        -0.1762
     10 H1         -4.8689   -0.0221    1.4325 H         1 <0>         0.2560
     11 C8         -0.7089   -0.6343   -0.3084 C.2       1 <0>        -0.0734
     12 C9          0.3981    0.1357   -0.4554 C.2       1 <0>        -0.0316
     13 C10         1.6340   -0.4426   -0.9949 C.2       1 <0>         0.3473
     14 O1          1.6118   -1.5244   -1.5530 O.2       1 <0>        -0.3458
     15 N3          2.7955    0.2327   -0.8679 N.am      1 <0>        -0.3134
     16 H2          3.6184   -0.1393   -1.2220 H         1 <0>         0.2615
     17 C11         2.8035    1.4723   -0.2226 C.2       1 <0>        -0.0235
     18 C12         3.9736    2.0306    0.1673 C.2       1 <0>        -0.1221
     19 C13         5.2237    1.2617    0.0707 C.ar      1 <0>        -0.0273
     20 C14         6.4299    1.9130   -0.2093 C.ar      1 <0>        -0.1274
     21 C15         7.5982    1.1864   -0.2981 C.ar      1 <0>        -0.0996
     22 C16         7.5811   -0.1848   -0.1115 C.ar      1 <0>        -0.1654
     23 C17         6.3910   -0.8387    0.1663 C.ar      1 <0>         0.1047
     24 C18         5.2134   -0.1233    0.2640 C.ar      1 <0>        -0.1836
     25 F1          6.3835   -2.1774    0.3474 F         1 <0>        -0.1022
     26 C19         1.5305    2.1664    0.0294 C.2       1 <0>         0.3448
     27 O2          1.5244    3.3418    0.3448 O.2       1 <0>        -0.3431
     28 N4          0.3696    1.4884   -0.0928 N.am      1 <0>        -0.2915
     29 H3         -0.4768    1.9350    0.0653 H         1 <0>         0.2872
     30 H4         -5.5868   -1.6231   -0.1298 H         1 <0>         0.0727
     31 H5         -5.2076   -3.3610   -0.0674 H         1 <0>         0.0897
     32 H6         -5.0559   -2.3638    1.3991 H         1 <0>         0.0729
     33 H7         -2.2784   -1.8733   -1.8180 H         1 <0>         0.0907
     34 H8         -3.5856   -3.0746   -1.9461 H         1 <0>         0.0815
     35 H9         -3.9649   -1.3366   -2.0085 H         1 <0>         0.0799
     36 H10        -2.6888   -3.1171    1.6666 H         1 <0>         0.0806
     37 H11        -2.8404   -4.1143    0.2000 H         1 <0>         0.0816
     38 H12        -1.5333   -2.9130    0.3281 H         1 <0>         0.0899
     39 H13        -3.5493    2.1136    2.0091 H         1 <0>         0.2064
     40 H14        -0.7175   -1.6456   -0.6874 H         1 <0>         0.1723
     41 H15         3.9891    3.0407    0.5493 H         1 <0>         0.1743
     42 H16         6.4457    2.9829   -0.3560 H         1 <0>         0.1415
     43 H17         8.5295    1.6888   -0.5142 H         1 <0>         0.1392
     44 H18         8.4998   -0.7481   -0.1824 H         1 <0>         0.1462
     45 H19         4.2869   -0.6325    0.4845 H         1 <0>         0.1589
@<TRIPOS>BOND
     1    1    2 1
     2    1   30 1
     3    1   31 1
     4    1   32 1
     5    2    3 1
     6    2    4 1
     7    2    5 1
     8    3   33 1
     9    3   34 1
    10    3   35 1
    11    4   36 1
    12    4   37 1
    13    4   38 1
    14    5    9 1
    15    5    6 2
    16    6    7 1
    17    6   11 1
    18    7    8 2
    19    8    9 1
    20    8   39 1
    21    9   10 1
    22   11   12 2
    23   11   40 1
    24   12   28 1
    25   12   13 1
    26   13   14 2
    27   13   15 am
    28   15   16 1
    29   15   17 1
    30   17   18 2
    31   17   26 1
    32   18   19 1
    33   18   41 1
    34   19   24 ar
    35   19   20 ar
    36   20   21 ar
    37   20   42 1
    38   21   22 ar
    39   21   43 1
    40   22   23 ar
    41   22   44 1
    42   23   24 ar
    43   23   25 1
    44   24   45 1
    45   26   27 2
    46   26   28 am
    47   28   29 1
@<TRIPOS>MOLECULE
ZINC03819467
   46    48     0     0     0
SMALL
USER_CHARGES

@<TRIPOS>ATOM
      1 C1         -4.9377   -2.3769    0.3156 C.3       1 <0>        -0.2199
      2 C2         -3.4817   -2.0721   -0.0422 C.3       1 <0>        -0.0127
      3 C3         -3.3157   -2.0904   -1.5631 C.3       1 <0>        -0.2074
      4 C4         -2.5705   -3.1302    0.5831 C.3       1 <0>        -0.2074
      5 C5         -3.1085   -0.7114    0.4874 C.2       1 <0>        -0.0074
      6 C6         -1.8954   -0.0929    0.3658 C.2       1 <0>        -0.0366
      7 C7         -3.1887    1.2522    1.4666 C.cat     1 <0>         0.0027
      8 N1         -3.9150    0.1411    1.1804 N.pl3     1 <0>        -0.1108
      9 H1         -4.8689   -0.0221    1.4325 H         1 <0>         0.3141
     10 C8         -0.7089   -0.6343   -0.3084 C.2       1 <0>        -0.1472
     11 C9          0.3981    0.1357   -0.4554 C.2       1 <0>         0.0340
     12 C10         1.6340   -0.4426   -0.9949 C.2       1 <0>         0.3398
     13 O1          1.6118   -1.5244   -1.5530 O.2       1 <0>        -0.3079
     14 N2          2.7955    0.2327   -0.8679 N.am      1 <0>        -0.2962
     15 H2          3.6184   -0.1393   -1.2220 H         1 <0>         0.2825
     16 C11         2.8035    1.4723   -0.2226 C.2       1 <0>        -0.0785
     17 C12         3.9736    2.0306    0.1673 C.2       1 <0>        -0.0355
     18 C13         5.2237    1.2617    0.0707 C.ar      1 <0>        -0.0663
     19 C14         6.4299    1.9130   -0.2093 C.ar      1 <0>        -0.1082
     20 C15         7.5982    1.1864   -0.2981 C.ar      1 <0>        -0.0933
     21 C16         7.5811   -0.1848   -0.1115 C.ar      1 <0>        -0.1399
     22 C17         6.3910   -0.8387    0.1663 C.ar      1 <0>         0.1089
     23 C18         5.2134   -0.1233    0.2640 C.ar      1 <0>        -0.1801
     24 F1          6.3835   -2.1774    0.3474 F         1 <0>        -0.0926
     25 C19         1.5305    2.1664    0.0294 C.2       1 <0>         0.3556
     26 O2          1.5244    3.3418    0.3448 O.2       1 <0>        -0.3066
     27 N3          0.3696    1.4884   -0.0928 N.am      1 <0>        -0.3410
     28 H3         -0.4768    1.9350    0.0653 H         1 <0>         0.2264
     29 H4         -5.5868   -1.6231   -0.1298 H         1 <0>         0.0784
     30 H5         -5.2076   -3.3610   -0.0674 H         1 <0>         0.1221
     31 H6         -5.0559   -2.3638    1.3991 H         1 <0>         0.0783
     32 H7         -2.2784   -1.8733   -1.8180 H         1 <0>         0.0907
     33 H8         -3.5856   -3.0746   -1.9461 H         1 <0>         0.1137
     34 H9         -3.9649   -1.3366   -2.0085 H         1 <0>         0.0876
     35 H10        -2.6888   -3.1171    1.6666 H         1 <0>         0.0880
     36 H11        -2.8404   -4.1143    0.2000 H         1 <0>         0.1139
     37 H12        -1.5333   -2.9130    0.3281 H         1 <0>         0.0893
     38 H13        -3.5493    2.1136    2.0091 H         1 <0>         0.2501
     39 H14        -0.7175   -1.6456   -0.6874 H         1 <0>         0.2140
     40 H15         3.9891    3.0407    0.5493 H         1 <0>         0.1788
     41 H16         6.4457    2.9829   -0.3560 H         1 <0>         0.1474
     42 H17         8.5295    1.6888   -0.5142 H         1 <0>         0.1535
     43 H18         8.4998   -0.7481   -0.1824 H         1 <0>         0.1601
     44 H19         4.2869   -0.6325    0.4845 H         1 <0>         0.1499
     45 N4         -1.9880    1.1089    0.9871 N.pl3     1 <0>        -0.1085
     46 H20        -1.2301    1.7971    1.0665 H         1 <0>         0.3244
@<TRIPOS>BOND
     1    1    2 1
     2    1   29 1
     3    1   30 1
     4    1   31 1
     5    2    3 1
     6    2    4 1
     7    2    5 1
     8    3   32 1
     9    3   33 1
    10    3   34 1
    11    4   35 1
    12    4   36 1
    13    4   37 1
    14    5    8 1
    15    5    6 2
    16    6   10 1
    17    6   45 1
    18    7    8 1
    19    7   38 1
    20    7   45 2
    21    8    9 1
    22   10   11 2
    23   10   39 1
    24   11   27 1
    25   11   12 1
    26   12   13 2
    27   12   14 am
    28   14   15 1
    29   14   16 1
    30   16   17 2
    31   16   25 1
    32   17   18 1
    33   17   40 1
    34   18   23 ar
    35   18   19 ar
    36   19   20 ar
    37   19   41 1
    38   20   21 ar
    39   20   42 1
    40   21   22 ar
    41   21   43 1
    42   22   23 ar
    43   22   24 1
    44   23   44 1
    45   25   26 2
    46   25   27 am
    47   27   28 1
    48   45   46 1
@<TRIPOS>MOLECULE
ZINC03819713
   39    41     0     0     0
SMALL
USER_CHARGES

@<TRIPOS>ATOM
      1 C1        -11.9652    1.3579   -1.0605 C.3       1 <0>        -0.0662
      2 O1        -11.2972    2.6201   -1.1127 O.3       1 <0>        -0.2053
      3 C2         -9.9439    2.5973   -1.2351 C.ar      1 <0>         0.1501
      4 C3         -9.2313    3.7863   -1.2918 C.ar      1 <0>        -0.1804
      5 C4         -7.8557    3.7605   -1.4158 C.ar      1 <0>         0.0038
      6 C5         -7.1890    2.5510   -1.4834 C.ar      1 <0>        -0.7899
      7 C6         -7.8975    1.3647   -1.4329 C.ar      1 <0>         0.0131
      8 C7         -9.2727    1.3851   -1.3032 C.ar      1 <0>        -0.2441
      9 S1         -5.4344    2.5216   -1.6416 S.o2      1 <0>         2.6649
     10 O2         -5.1061    3.7537   -2.2687 O.2       1 <0>        -0.8936
     11 O3         -5.1486    1.2848   -2.2804 O.2       1 <0>        -0.8730
     12 C8         -4.8130    2.5027    0.0626 C.3       1 <0>        -0.6719
     13 C9         -3.3063    2.4768    0.0476 C.2       1 <0>        -0.0103
     14 N1         -2.5465    1.3506    0.0340 N.2       1 <0>        -0.1514
     15 H1         -2.8651    4.4772    0.0541 H         1 <0>         0.2838
     16 C10        -1.2244    1.7513    0.0174 C.ar      1 <0>        -0.0611
     17 C11        -0.0126    1.0758    0.0081 C.ar      1 <0>        -0.0377
     18 C12         1.1750    1.7808    0.0006 C.ar      1 <0>        -0.1572
     19 C13         1.1741    3.1636    0.0080 C.ar      1 <0>        -0.0843
     20 C14        -0.0279    3.8663    0.0233 C.ar      1 <0>        -0.1280
     21 C15        -1.2468    3.1556    0.0310 C.ar      1 <0>        -0.0098
     22 N2         -2.5409    3.5312    0.0458 N.pl3     1 <0>        -0.1337
     23 C16        -0.0270    5.3404    0.0317 C.2       1 <0>         0.3586
     24 O4         -1.0798    5.9490    0.0450 O.2       1 <0>        -0.3959
     25 N3          1.1405    6.0136    0.0247 N.am      1 <0>        -0.4223
     26 H2        -11.7632    0.8018   -1.9760 H         1 <0>         0.0742
     27 H3        -11.6030    0.7903   -0.2033 H         1 <0>         0.0714
     28 H4        -13.0388    1.5187   -0.9625 H         1 <0>         0.1139
     29 H5         -9.7516    4.7312   -1.2393 H         1 <0>         0.1516
     30 H6         -7.3004    4.6858   -1.4596 H         1 <0>         0.1538
     31 H7         -7.3749    0.4213   -1.4907 H         1 <0>         0.1543
     32 H8         -9.8252    0.4582   -1.2593 H         1 <0>         0.1430
     33 H9         -5.1865    1.6166    0.5757 H         1 <0>         0.1706
     34 H10        -5.1558    3.3963    0.5842 H         1 <0>         0.1433
     35 H11         0.0021   -0.0041    0.0021 H         1 <0>         0.1480
     36 H12         2.1137    1.2468   -0.0109 H         1 <0>         0.1383
     37 H13         2.1106    3.7014    0.0024 H         1 <0>         0.1276
     38 H14         1.9802    5.5281    0.0141 H         1 <0>         0.2186
     39 H15         1.1411    6.9836    0.0302 H         1 <0>         0.2332
@<TRIPOS>BOND
     1    1    2 1
     2    1   26 1
     3    1   27 1
     4    1   28 1
     5    2    3 1
     6    3    8 ar
     7    3    4 ar
     8    4    5 ar
     9    4   29 1
    10    5    6 ar
    11    5   30 1
    12    6    7 ar
    13    6    9 1
    14    7    8 ar
    15    7   31 1
    16    8   32 1
    17    9   10 2
    18    9   11 2
    19    9   12 1
    20   12   13 1
    21   12   33 1
    22   12   34 1
    23   13   14 2
    24   13   22 1
    25   14   16 1
    26   15   22 1
    27   16   21 ar
    28   16   17 ar
    29   17   18 ar
    30   17   35 1
    31   18   19 ar
    32   18   36 1
    33   19   20 ar
    34   19   37 1
    35   20   21 ar
    36   20   23 1
    37   21   22 1
    38   23   24 2
    39   23   25 am
    40   25   38 1
    41   25   39 1
@<TRIPOS>MOLECULE
ZINC03819713
   39    41     0     0     0
SMALL
USER_CHARGES

@<TRIPOS>ATOM
      1 C1        -11.9652    1.3579   -1.0605 C.3       1 <0>        -0.0662
      2 O1        -11.2972    2.6201   -1.1127 O.3       1 <0>        -0.2053
      3 C2         -9.9439    2.5973   -1.2351 C.ar      1 <0>         0.1501
      4 C3         -9.2313    3.7863   -1.2918 C.ar      1 <0>        -0.1804
      5 C4         -7.8557    3.7605   -1.4158 C.ar      1 <0>         0.0038
      6 C5         -7.1890    2.5510   -1.4834 C.ar      1 <0>        -0.7899
      7 C6         -7.8975    1.3647   -1.4329 C.ar      1 <0>         0.0131
      8 C7         -9.2727    1.3851   -1.3032 C.ar      1 <0>        -0.2441
      9 S1         -5.4344    2.5216   -1.6416 S.o2      1 <0>         2.6649
     10 O2         -5.1061    3.7537   -2.2687 O.2       1 <0>        -0.8936
     11 O3         -5.1486    1.2848   -2.2804 O.2       1 <0>        -0.8730
     12 C8         -4.8130    2.5027    0.0626 C.3       1 <0>        -0.6719
     13 C9         -3.3063    2.4768    0.0476 C.2       1 <0>        -0.0103
     14 N1         -2.5465    1.3506    0.0340 N.2       1 <0>        -0.1514
     15 H1         -2.8651    4.4772    0.0541 H         1 <0>         0.2838
     16 C10        -1.2244    1.7513    0.0174 C.ar      1 <0>        -0.0611
     17 C11        -0.0126    1.0758    0.0081 C.ar      1 <0>        -0.0377
     18 C12         1.1750    1.7808    0.0006 C.ar      1 <0>        -0.1572
     19 C13         1.1741    3.1636    0.0080 C.ar      1 <0>        -0.0843
     20 C14        -0.0279    3.8663    0.0233 C.ar      1 <0>        -0.1280
     21 C15        -1.2468    3.1556    0.0310 C.ar      1 <0>        -0.0098
     22 N2         -2.5409    3.5312    0.0458 N.pl3     1 <0>        -0.1337
     23 C16        -0.0270    5.3404    0.0317 C.2       1 <0>         0.3586
     24 O4         -1.0798    5.9490    0.0450 O.2       1 <0>        -0.3959
     25 N3          1.1405    6.0136    0.0247 N.am      1 <0>        -0.4223
     26 H2        -11.7632    0.8018   -1.9760 H         1 <0>         0.0742
     27 H3        -11.6030    0.7903   -0.2033 H         1 <0>         0.0714
     28 H4        -13.0388    1.5187   -0.9625 H         1 <0>         0.1139
     29 H5         -9.7516    4.7312   -1.2393 H         1 <0>         0.1516
     30 H6         -7.3004    4.6858   -1.4596 H         1 <0>         0.1538
     31 H7         -7.3749    0.4213   -1.4907 H         1 <0>         0.1543
     32 H8         -9.8252    0.4582   -1.2593 H         1 <0>         0.1430
     33 H9         -5.1865    1.6166    0.5757 H         1 <0>         0.1706
     34 H10        -5.1558    3.3963    0.5842 H         1 <0>         0.1433
     35 H11         0.0021   -0.0041    0.0021 H         1 <0>         0.1480
     36 H12         2.1137    1.2468   -0.0109 H         1 <0>         0.1383
     37 H13         2.1106    3.7014    0.0024 H         1 <0>         0.1276
     38 H14         1.9802    5.5281    0.0141 H         1 <0>         0.2186
     39 H15         1.1411    6.9836    0.0302 H         1 <0>         0.2332
@<TRIPOS>BOND
     1    1    2 1
     2    1   26 1
     3    1   27 1
     4    1   28 1
     5    2    3 1
     6    3    8 ar
     7    3    4 ar
     8    4    5 ar
     9    4   29 1
    10    5    6 ar
    11    5   30 1
    12    6    7 ar
    13    6    9 1
    14    7    8 ar
    15    7   31 1
    16    8   32 1
    17    9   10 2
    18    9   11 2
    19    9   12 1
    20   12   13 1
    21   12   33 1
    22   12   34 1
    23   13   14 2
    24   13   22 1
    25   14   16 1
    26   15   22 1
    27   16   21 ar
    28   16   17 ar
    29   17   18 ar
    30   17   35 1
    31   18   19 ar
    32   18   36 1
    33   19   20 ar
    34   19   37 1
    35   20   21 ar
    36   20   23 1
    37   21   22 1
    38   23   24 2
    39   23   25 am
    40   25   38 1
    41   25   39 1
@<TRIPOS>MOLECULE
ZINC03819713
   40    42     0     0     0
SMALL
USER_CHARGES

@<TRIPOS>ATOM
      1 C1        -11.9652    1.3579   -1.0605 C.3       1 <0>        -0.0707
      2 O1        -11.2972    2.6201   -1.1127 O.3       1 <0>        -0.1905
      3 C2         -9.9439    2.5973   -1.2351 C.ar      1 <0>         0.1746
      4 C3         -9.2313    3.7863   -1.2918 C.ar      1 <0>        -0.1705
      5 C4         -7.8557    3.7605   -1.4158 C.ar      1 <0>         0.0059
      6 C5         -7.1890    2.5510   -1.4834 C.ar      1 <0>        -0.7958
      7 C6         -7.8975    1.3647   -1.4329 C.ar      1 <0>         0.0122
      8 C7         -9.2727    1.3851   -1.3032 C.ar      1 <0>        -0.2371
      9 S1         -5.4344    2.5216   -1.6416 S.o2      1 <0>         2.6442
     10 O2         -5.1061    3.7537   -2.2687 O.2       1 <0>        -0.8597
     11 O3         -5.1486    1.2848   -2.2804 O.2       1 <0>        -0.8676
     12 C8         -4.8130    2.5027    0.0626 C.3       1 <0>        -0.7346
     13 C9         -3.3063    2.4768    0.0476 C.cat     1 <0>         0.1384
     14 N1         -2.5465    1.3506    0.0340 N.pl3     1 <0>        -0.1406
     15 H1         -2.8814    0.4083    0.0357 H         1 <0>         0.3143
     16 C10        -1.2244    1.7513    0.0174 C.ar      1 <0>        -0.0216
     17 C11        -0.0126    1.0758    0.0080 C.ar      1 <0>        -0.0768
     18 C12         1.1750    1.7808    0.0004 C.ar      1 <0>        -0.0819
     19 C13         1.1741    3.1636    0.0078 C.ar      1 <0>        -0.0624
     20 C14        -0.0279    3.8663    0.0231 C.ar      1 <0>        -0.0879
     21 C15        -1.2468    3.1556    0.0309 C.ar      1 <0>         0.0046
     22 C16        -0.0270    5.3404    0.0315 C.2       1 <0>         0.3543
     23 O4         -1.0798    5.9490    0.0448 O.2       1 <0>        -0.3824
     24 N2          1.1405    6.0136    0.0244 N.am      1 <0>        -0.3971
     25 H2        -11.7632    0.8018   -1.9760 H         1 <0>         0.0796
     26 H3        -11.6030    0.7903   -0.2033 H         1 <0>         0.0737
     27 H4        -13.0388    1.5187   -0.9625 H         1 <0>         0.1291
     28 H5         -9.7516    4.7312   -1.2393 H         1 <0>         0.1658
     29 H6         -7.3004    4.6858   -1.4596 H         1 <0>         0.1542
     30 H7         -7.3749    0.4213   -1.4907 H         1 <0>         0.1482
     31 H8         -9.8252    0.4582   -1.2593 H         1 <0>         0.1552
     32 H9         -5.1865    1.6166    0.5757 H         1 <0>         0.1809
     33 H10        -5.1558    3.3963    0.5842 H         1 <0>         0.1848
     34 H11         0.0021   -0.0041    0.0020 H         1 <0>         0.1675
     35 H12         2.1137    1.2468   -0.0111 H         1 <0>         0.1749
     36 H13         2.1106    3.7014    0.0021 H         1 <0>         0.1639
     37 H14         1.9802    5.5281    0.0138 H         1 <0>         0.2252
     38 H15         1.1411    6.9836    0.0299 H         1 <0>         0.2568
     39 N3         -2.5416    3.5331    0.0457 N.pl3     1 <0>        -0.0771
     40 H16        -2.8745    4.5044    0.0542 H         1 <0>         0.3458
@<TRIPOS>BOND
     1    1    2 1
     2    1   25 1
     3    1   26 1
     4    1   27 1
     5    2    3 1
     6    3    8 ar
     7    3    4 ar
     8    4    5 ar
     9    4   28 1
    10    5    6 ar
    11    5   29 1
    12    6    7 ar
    13    6    9 1
    14    7    8 ar
    15    7   30 1
    16    8   31 1
    17    9   10 2
    18    9   11 2
    19    9   12 1
    20   12   13 1
    21   12   32 1
    22   12   33 1
    23   13   14 1
    24   13   39 2
    25   14   15 1
    26   14   16 1
    27   16   21 ar
    28   16   17 ar
    29   17   18 ar
    30   17   34 1
    31   18   19 ar
    32   18   35 1
    33   19   20 ar
    34   19   36 1
    35   20   21 ar
    36   20   22 1
    37   21   39 1
    38   22   23 2
    39   22   24 am
    40   24   37 1
    41   24   38 1
    42   39   40 1
@<TRIPOS>MOLECULE
ZINC03820622
   46    49     0     0     0
SMALL
USER_CHARGES

@<TRIPOS>ATOM
      1 C1         -1.1425    1.7680   -0.1665 C.ar      1 <0>        -0.1239
      2 C2         -1.2257    3.1337    0.0181 C.ar      1 <0>        -0.1156
      3 C3         -0.2566    3.7952    0.7701 C.ar      1 <0>        -0.0371
      4 C4          0.7911    3.0737    1.3380 C.ar      1 <0>        -0.1047
      5 C5          0.8638    1.7032    1.1520 C.ar      1 <0>         0.0607
      6 C6         -0.1060    1.0518    0.4019 C.ar      1 <0>        -0.1376
      7 O1          1.8844    0.9958    1.7043 O.3       1 <0>        -0.2893
      8 C7         -0.3408    5.2632    0.9658 C.ar      1 <0>         0.1422
      9 C8         -1.3849    5.9921    0.4016 C.ar      1 <0>        -0.3314
     10 C9         -1.4215    7.3697    0.6131 C.ar      1 <0>         0.2227
     11 N1         -0.4647    7.9382    1.3415 N.ar      1 <0>        -0.3238
     12 C10         0.5135    7.2131    1.8629 C.ar      1 <0>         0.1969
     13 N2          0.5789    5.9025    1.6886 N.ar      1 <0>        -0.2629
     14 N3          1.4905    7.8419    2.6150 N.pl3     1 <0>        -0.1716
     15 C11         1.5833    7.2512    3.9580 C.3       1 <0>        -0.1006
     16 C12         2.7130    7.9343    4.7333 C.3       1 <0>        -0.0154
     17 O2          2.4703    9.3430    4.7770 O.3       1 <0>        -0.2813
     18 C13         2.3749    9.9512    3.4862 C.3       1 <0>        -0.0179
     19 C14         1.2417    9.2885    2.6983 C.3       1 <0>        -0.1026
     20 N4         -2.4412    8.1369    0.0710 N.pl3     1 <0>        -0.2785
     21 C15        -2.4040    9.5322    0.1847 C.ar      1 <0>        -0.0262
     22 C16        -3.5855   10.2630    0.2991 C.ar      1 <0>        -0.0934
     23 C17        -3.5007   11.6396    0.4032 C.ar      1 <0>        -0.2573
     24 C18        -2.2503   12.2443    0.3905 C.ar      1 <0>         0.1474
     25 N5         -1.1495   11.5199    0.2856 N.ar      1 <0>        -0.1741
     26 C19        -1.1912   10.2048    0.1849 C.ar      1 <0>        -0.0004
     27 O3         -2.1574   13.5953    0.4869 O.3       1 <0>        -0.2300
     28 H1         -1.8920    1.2572   -0.7528 H         1 <0>         0.1352
     29 H2         -2.0396    3.6898   -0.4232 H         1 <0>         0.1329
     30 H3          1.5448    3.5817    1.9213 H         1 <0>         0.1665
     31 H4         -0.0478   -0.0170    0.2583 H         1 <0>         0.1411
     32 H5          2.6611    0.9153    1.1339 H         1 <0>         0.2288
     33 H6         -2.1478    5.5020   -0.1851 H         1 <0>         0.1448
     34 H7          0.6404    7.3962    4.4853 H         1 <0>         0.0791
     35 H8          1.7932    6.1849    3.8729 H         1 <0>         0.1229
     36 H9          3.6634    7.7440    4.2347 H         1 <0>         0.0809
     37 H10         2.7491    7.5395    5.7486 H         1 <0>         0.1122
     38 H11         3.3155    9.8196    2.9514 H         1 <0>         0.0783
     39 H12         2.1660   11.0151    3.5989 H         1 <0>         0.1177
     40 H13         1.2023    9.7094    1.6936 H         1 <0>         0.1201
     41 H14         0.2934    9.4661    3.2055 H         1 <0>         0.0920
     42 H15        -3.1804    7.7071   -0.3871 H         1 <0>         0.2480
     43 H16        -4.5444    9.7660    0.3063 H         1 <0>         0.1386
     44 H17        -4.3959   12.2372    0.4934 H         1 <0>         0.1368
     45 H18        -0.2707    9.6460    0.1018 H         1 <0>         0.1940
     46 H19        -3.0743   13.9881    0.5586 H         1 <0>         0.2359
@<TRIPOS>BOND
     1    1    6 ar
     2    1    2 ar
     3    1   28 1
     4    2    3 ar
     5    2   29 1
     6    3    4 ar
     7    3    8 1
     8    4    5 ar
     9    4   30 1
    10    5    6 ar
    11    5    7 1
    12    6   31 1
    13    7   32 1
    14    8   13 ar
    15    8    9 ar
    16    9   10 ar
    17    9   33 1
    18   10   11 ar
    19   10   20 1
    20   11   12 ar
    21   12   13 ar
    22   12   14 1
    23   14   19 1
    24   14   15 1
    25   15   16 1
    26   15   34 1
    27   15   35 1
    28   16   17 1
    29   16   36 1
    30   16   37 1
    31   17   18 1
    32   18   19 1
    33   18   38 1
    34   18   39 1
    35   19   40 1
    36   19   41 1
    37   20   21 1
    38   20   42 1
    39   21   22 ar
    40   21   26 ar
    41   22   43 1
    42   22   23 ar
    43   23   44 1
    44   23   24 ar
    45   24   25 ar
    46   24   27 1
    47   25   26 ar
    48   26   45 1
    49   27   46 1
@<TRIPOS>MOLECULE
ZINC03820622
   46    49     0     0     0
SMALL
USER_CHARGES

@<TRIPOS>ATOM
      1 C1         -1.1794    1.7997   -0.6735 C.ar      1 <0>        -0.1247
      2 C2         -1.2157    3.1664   -0.4813 C.ar      1 <0>        -0.1165
      3 C3         -0.0349    3.8683   -0.2457 C.ar      1 <0>        -0.0344
      4 C4          1.1788    3.1860   -0.1996 C.ar      1 <0>        -0.1063
      5 C5          1.2052    1.8141   -0.3882 C.ar      1 <0>         0.0600
      6 C6          0.0243    1.1225   -0.6220 C.ar      1 <0>        -0.1394
      7 O1          2.3872    1.1449   -0.3440 O.3       1 <0>        -0.2900
      8 C7         -0.0705    5.3374   -0.0440 C.ar      1 <0>         0.1352
      9 C8         -1.2795    6.0272   -0.0885 C.ar      1 <0>        -0.3305
     10 C9         -1.2625    7.4077    0.1069 C.ar      1 <0>         0.2275
     11 N1         -0.1002    8.0158    0.3277 N.ar      1 <0>        -0.3252
     12 C10         1.0307    7.3271    0.3632 C.ar      1 <0>         0.1946
     13 N2          1.0539    6.0152    0.1878 N.ar      1 <0>        -0.2659
     14 N3          2.2196    7.9963    0.5961 N.pl3     1 <0>        -0.1709
     15 C11         2.9201    7.4361    1.7610 C.3       1 <0>        -0.1007
     16 C12         4.2541    8.1641    1.9462 C.3       1 <0>        -0.0157
     17 O2          4.0110    9.5667    2.0836 O.3       1 <0>        -0.2816
     18 C13         3.3309   10.1453    0.9664 C.3       1 <0>        -0.0189
     19 C14         1.9874    9.4374    0.7713 C.3       1 <0>        -0.0999
     20 N4         -2.4408    8.1368    0.0710 N.pl3     1 <0>        -0.2894
     21 C15        -3.6736    7.4735   -0.0281 C.ar      1 <0>        -0.0644
     22 C16        -4.0444    6.5260    0.9428 C.ar      1 <0>        -0.0442
     23 C17        -5.2464    5.8920    0.8300 C.ar      1 <0>        -0.3211
     24 C18        -6.0836    6.1894   -0.2582 C.ar      1 <0>         0.1904
     25 O3         -7.1596    5.6234   -0.3713 O.3       1 <0>        -0.1773
     26 N5         -5.7049    7.1010   -1.1737 N.ar      1 <0>        -0.2089
     27 H1         -7.2813    4.9838    0.3877 H         1 <0>         0.2630
     28 C19        -4.5122    7.7450   -1.0624 C.ar      1 <0>        -0.0039
     29 H2         -2.0947    1.2577   -0.8601 H         1 <0>         0.1341
     30 H3         -2.1584    3.6921   -0.5174 H         1 <0>         0.1349
     31 H4          2.0966    3.7253   -0.0176 H         1 <0>         0.1659
     32 H5          0.0469    0.0527   -0.7685 H         1 <0>         0.1402
     33 H6          2.8304    1.0724   -1.2004 H         1 <0>         0.2284
     34 H7         -2.2076    5.5056   -0.2702 H         1 <0>         0.1525
     35 H8          2.3068    7.5678    2.6524 H         1 <0>         0.0777
     36 H9          3.1043    6.3741    1.5988 H         1 <0>         0.1241
     37 H10         4.8885    7.9880    1.0775 H         1 <0>         0.0814
     38 H11         4.7515    7.7915    2.8416 H         1 <0>         0.1124
     39 H12         3.9384   10.0268    0.0692 H         1 <0>         0.0787
     40 H13         3.1599   11.2055    1.1529 H         1 <0>         0.1118
     41 H14         1.4910    9.8363   -0.1133 H         1 <0>         0.1169
     42 H15         1.3593    9.6010    1.6469 H         1 <0>         0.0885
     43 H16        -2.4134    9.1054    0.1143 H         1 <0>         0.2501
     44 H17        -3.3847    6.3031    1.7683 H         1 <0>         0.1499
     45 H18        -5.5481    5.1614    1.5660 H         1 <0>         0.1382
     46 H19        -4.2290    8.4787   -1.8025 H         1 <0>         0.1735
@<TRIPOS>BOND
     1    1    6 ar
     2    1    2 ar
     3    1   29 1
     4    2    3 ar
     5    2   30 1
     6    3    4 ar
     7    3    8 1
     8    4    5 ar
     9    4   31 1
    10    5    6 ar
    11    5    7 1
    12    6   32 1
    13    7   33 1
    14    8   13 ar
    15    8    9 ar
    16    9   10 ar
    17    9   34 1
    18   10   11 ar
    19   10   20 1
    20   11   12 ar
    21   12   13 ar
    22   12   14 1
    23   14   19 1
    24   14   15 1
    25   15   16 1
    26   15   35 1
    27   15   36 1
    28   16   17 1
    29   16   37 1
    30   16   38 1
    31   17   18 1
    32   18   19 1
    33   18   39 1
    34   18   40 1
    35   19   41 1
    36   19   42 1
    37   20   21 1
    38   20   43 1
    39   21   22 ar
    40   21   28 ar
    41   22   44 1
    42   22   23 ar
    43   23   45 1
    44   23   24 ar
    45   24   26 ar
    46   24   25 1
    47   25   27 1
    48   26   28 ar
    49   28   46 1
@<TRIPOS>MOLECULE
ZINC03838332
   38    40     0     0     0
SMALL
USER_CHARGES

@<TRIPOS>ATOM
      1 C1          0.5522    1.3098    1.7484 C.3       1 <0>        -0.2384
      2 C2         -0.6131    0.7942    0.9438 C.2       1 <0>         0.3034
      3 O1         -0.5040   -0.2330    0.3081 O.2       1 <0>        -0.3226
      4 N1         -1.7747    1.4775    0.9261 N.am      1 <0>        -0.3483
      5 C3         -2.8305    1.0435    0.1135 C.ar      1 <0>         0.1628
      6 C4         -2.9968   -0.3079   -0.1477 C.ar      1 <0>        -0.1328
      7 C5         -4.0426   -0.7346   -0.9450 C.ar      1 <0>        -0.0297
      8 C6         -4.9191    0.1839   -1.4939 C.ar      1 <0>        -0.1381
      9 C7         -4.7583    1.5334   -1.2441 C.ar      1 <0>        -0.0206
     10 C8         -3.7145    1.9707   -0.4400 C.ar      1 <0>        -0.4805
     11 S1         -3.5068    3.6907   -0.1190 S.3       1 <0>         1.2547
     12 C9         -3.7216    4.4694   -1.7432 C.3       1 <0>        -0.5072
     13 C10        -4.9642    4.1384    0.7645 C.2       1 <0>        -0.6948
     14 C11        -5.8853    3.1450    1.1628 C.2       1 <0>         0.3791
     15 O2         -5.6756    1.9738    0.8960 O.2       1 <0>        -0.3332
     16 N2         -6.9976    3.4962    1.8388 N.am      1 <0>        -0.2771
     17 H1         -7.6518    2.7951    2.1226 H         1 <0>         0.2930
     18 C12        -7.2352    4.8258    2.1405 C.2       1 <0>         0.1258
     19 C13        -8.2547    5.4484    2.7978 C.2       1 <0>        -0.2803
     20 C14        -7.9811    6.8166    2.8143 C.2       1 <0>        -0.0250
     21 N3         -6.8452    7.0230    2.1950 N.2       1 <0>        -0.0862
     22 N4         -6.3484    5.7884    1.7577 N.pl3     1 <0>        -0.1641
     23 C15        -5.2043    5.4429    1.0709 C.2       1 <0>         0.4069
     24 O3         -4.3240    6.3995    0.6971 O.3       1 <0>        -0.2437
     25 H2          1.3987    0.6321    1.6372 H         1 <0>         0.1383
     26 H3          0.8308    2.3009    1.3903 H         1 <0>         0.0990
     27 H4          0.2700    1.3693    2.7995 H         1 <0>         0.1064
     28 H5         -1.8798    2.2697    1.4758 H         1 <0>         0.2283
     29 H6         -2.3116   -1.0278    0.2752 H         1 <0>         0.1949
     30 H7         -4.1728   -1.7881   -1.1438 H         1 <0>         0.1604
     31 H8         -5.7314   -0.1547   -2.1199 H         1 <0>         0.1549
     32 H9         -5.4444    2.2478   -1.6746 H         1 <0>         0.1289
     33 H10        -4.7157    4.2404   -2.1273 H         1 <0>         0.1404
     34 H11        -3.6095    5.5492   -1.6461 H         1 <0>         0.1583
     35 H12        -2.9688    4.0864   -2.4321 H         1 <0>         0.1656
     36 H13        -9.1202    4.9678    3.2294 H         1 <0>         0.1920
     37 H14        -8.6018    7.5781    3.2629 H         1 <0>         0.2237
     38 H15        -4.5805    7.2943    0.9593 H         1 <0>         0.3056
@<TRIPOS>BOND
     1    1    2 1
     2    1   25 1
     3    1   26 1
     4    1   27 1
     5    2    3 2
     6    2    4 am
     7    4    5 1
     8    4   28 1
     9    5   10 ar
    10    5    6 ar
    11    6    7 ar
    12    6   29 1
    13    7    8 ar
    14    7   30 1
    15    8    9 ar
    16    8   31 1
    17    9   10 ar
    18    9   32 1
    19   10   11 1
    20   11   12 1
    21   11   13 1
    22   12   33 1
    23   12   34 1
    24   12   35 1
    25   13   23 2
    26   13   14 1
    27   14   15 2
    28   14   16 am
    29   16   17 1
    30   16   18 1
    31   18   22 1
    32   18   19 2
    33   19   20 1
    34   19   36 1
    35   20   21 2
    36   20   37 1
    37   21   22 1
    38   22   23 1
    39   23   24 1
    40   24   38 1
@<TRIPOS>MOLECULE
ZINC03839468
   43    46     0     0     0
SMALL
USER_CHARGES

@<TRIPOS>ATOM
      1 C1          3.9630    2.2458   -0.0229 C.3       1 <0>        -0.3207
      2 S1          2.7193    0.9253   -0.0178 S.3       1 <0>         0.1586
      3 C2          1.1825    1.7871    0.0004 C.ar      1 <0>        -0.1822
      4 C3         -0.0126    1.0758    0.0080 C.ar      1 <0>        -0.1085
      5 C4         -1.2157    1.7483    0.0173 C.ar      1 <0>        -0.1013
      6 C5         -1.2341    3.1423    0.0298 C.ar      1 <0>        -0.0477
      7 C6         -0.0350    3.8537    0.0222 C.ar      1 <0>        -0.1020
      8 C7          1.1662    3.1777    0.0075 C.ar      1 <0>        -0.1480
      9 C8         -2.5278    3.8679    0.0456 C.ar      1 <0>        -0.0515
     10 C9         -2.5491    5.2643    0.0586 C.ar      1 <0>        -0.0818
     11 C10        -3.7479    5.9347    0.0731 C.ar      1 <0>        -0.1656
     12 C11        -4.9624    5.2385    0.0871 C.ar      1 <0>         0.0857
     13 C12        -4.9477    3.8437    0.0684 C.ar      1 <0>        -0.1334
     14 C13        -3.7217    3.1631    0.0532 C.ar      1 <0>        -0.0503
     15 C14        -6.1735    3.0301    0.0548 C.2       1 <0>         0.3666
     16 O1         -6.2001    2.0025    0.7043 O.2       1 <0>        -0.3634
     17 N1         -7.2610    3.3772   -0.6454 N.am      1 <0>        -0.3340
     18 C15        -8.5275    2.6282   -0.7161 C.3       1 <0>        -0.0421
     19 C16        -9.1902    3.0864   -2.0390 C.3       1 <0>         0.0226
     20 H1        -10.2726    2.9654   -1.9961 H         1 <0>         0.0938
     21 C17        -8.7997    4.5877   -2.0802 C.3       1 <0>        -0.1493
     22 C18        -7.3830    4.5915   -1.4707 C.3       1 <0>         0.0077
     23 H2         -6.6185    4.6038   -2.2476 H         1 <0>         0.1264
     24 C19        -7.2326    5.7849   -0.5636 C.2       1 <0>         0.2964
     25 O2         -8.1514    6.5697   -0.4600 O.2       1 <0>        -0.3552
     26 N2         -6.1164    5.9975    0.1262 N.am      1 <0>        -0.3091
     27 O3         -8.6430    2.3833   -3.1563 O.3       1 <0>        -0.3418
     28 H3          3.8299    2.8668   -0.9088 H         1 <0>         0.0980
     29 H4          3.8462    2.8584    0.8711 H         1 <0>         0.0983
     30 H5          4.9601    1.8057   -0.0341 H         1 <0>         0.1210
     31 H6          0.0021   -0.0041    0.0020 H         1 <0>         0.1441
     32 H7         -2.1436    1.1956    0.0191 H         1 <0>         0.1412
     33 H8         -0.0473    4.9336    0.0281 H         1 <0>         0.1319
     34 H9          2.0953    3.7284    0.0013 H         1 <0>         0.1331
     35 H10        -1.6218    5.8179    0.0528 H         1 <0>         0.1402
     36 H11        -3.7536    7.0147    0.0785 H         1 <0>         0.1401
     37 H12        -3.7075    2.0832    0.0477 H         1 <0>         0.1598
     38 H13        -8.3327    1.5560   -0.7414 H         1 <0>         0.1094
     39 H14        -9.1636    2.8786    0.1329 H         1 <0>         0.0991
     40 H15        -9.4828    5.1808   -1.4722 H         1 <0>         0.1359
     41 H16        -8.7790    4.9529   -3.1069 H         1 <0>         0.1182
     42 H17        -6.1116    6.7652    0.7190 H         1 <0>         0.2431
     43 H18        -8.7784    1.4264   -3.1235 H         1 <0>         0.2168
@<TRIPOS>BOND
     1    1    2 1
     2    1   28 1
     3    1   29 1
     4    1   30 1
     5    2    3 1
     6    3    8 ar
     7    3    4 ar
     8    4    5 ar
     9    4   31 1
    10    5    6 ar
    11    5   32 1
    12    6    7 ar
    13    6    9 1
    14    7    8 ar
    15    7   33 1
    16    8   34 1
    17    9   14 ar
    18    9   10 ar
    19   10   11 ar
    20   10   35 1
    21   11   12 ar
    22   11   36 1
    23   12   26 1
    24   12   13 ar
    25   13   14 ar
    26   13   15 1
    27   14   37 1
    28   15   16 2
    29   15   17 am
    30   17   22 1
    31   17   18 1
    32   18   19 1
    33   18   38 1
    34   18   39 1
    35   19   20 1
    36   19   21 1
    37   19   27 1
    38   21   22 1
    39   21   40 1
    40   21   41 1
    41   22   23 1
    42   22   24 1
    43   24   25 2
    44   24   26 am
    45   26   42 1
    46   27   43 1
@<TRIPOS>MOLECULE
ZINC03847309
   42    45     0     0     0
SMALL
USER_CHARGES

@<TRIPOS>ATOM
      1 C1         -0.0127    1.0858    0.0080 C.3       1 <0>        -0.0680
      2 O1         -0.6816    1.5467    1.1837 O.3       1 <0>        -0.1974
      3 C2         -1.9747    1.1631    1.3482 C.ar      1 <0>         0.0939
      4 C3         -2.5693    0.3712    0.4056 C.ar      1 <0>        -0.2275
      5 C4         -3.8998   -0.0233    0.5760 C.ar      1 <0>         0.0246
      6 C5         -4.6193    0.4007    1.7230 C.ar      1 <0>        -0.1256
      7 C6         -3.9829    1.2138    2.6750 C.ar      1 <0>        -0.1039
      8 C7         -2.6816    1.5796    2.4860 C.ar      1 <0>         0.0561
      9 O2         -2.0639    2.3621    3.4101 O.3       1 <0>        -0.2775
     10 C8         -5.9541   -0.0080    1.8717 C.ar      1 <0>        -0.0093
     11 N1         -6.5209   -0.7687    0.9634 N.ar      1 <0>        -0.1718
     12 C9         -5.8886   -1.1876   -0.1212 C.ar      1 <0>        -0.0282
     13 C10        -4.5689   -0.8432   -0.3679 C.ar      1 <0>        -0.0945
     14 C11        -3.8761   -1.3191   -1.5843 C.ar      1 <0>        -0.0952
     15 C12        -4.2887   -0.9104   -2.8428 C.ar      1 <0>        -0.0296
     16 N2         -3.6778   -1.3286   -3.9399 N.ar      1 <0>        -0.1730
     17 C13        -2.6520   -2.1485   -3.9180 C.ar      1 <0>        -0.0091
     18 C14        -2.1509   -2.6261   -2.6967 C.ar      1 <0>        -0.1259
     19 C15        -2.7691   -2.2006   -1.4925 C.ar      1 <0>         0.0249
     20 C16        -2.2917   -2.6678   -0.2641 C.ar      1 <0>        -0.2279
     21 C17        -1.2247   -3.5222   -0.2361 C.ar      1 <0>         0.0959
     22 C18        -0.6078   -3.9402   -1.4245 C.ar      1 <0>         0.0566
     23 C19        -1.0566   -3.5044   -2.6376 C.ar      1 <0>        -0.1049
     24 O3          0.4515   -4.7903   -1.3672 O.3       1 <0>        -0.2753
     25 O4         -0.7565   -3.9722    0.9575 O.3       1 <0>        -0.1973
     26 C20        -1.4262   -3.5112    2.1326 C.3       1 <0>        -0.0693
     27 H1          0.0021   -0.0041    0.0020 H         1 <0>         0.0721
     28 H2          1.0099    1.4631    0.0003 H         1 <0>         0.1130
     29 H3         -0.5399    1.4469   -0.8751 H         1 <0>         0.0727
     30 H4         -2.0149    0.0522   -0.4647 H         1 <0>         0.1570
     31 H5         -4.5183    1.5440    3.5529 H         1 <0>         0.1522
     32 H6         -2.1543    3.3108    3.2459 H         1 <0>         0.2302
     33 H7         -6.5180    0.3047    2.7382 H         1 <0>         0.1641
     34 H8         -6.4126   -1.8118   -0.8299 H         1 <0>         0.1670
     35 H9         -5.1276   -0.2360   -2.9301 H         1 <0>         0.1658
     36 H10        -2.1915   -2.4573   -4.8448 H         1 <0>         0.1639
     37 H11        -2.7594   -2.3517    0.6566 H         1 <0>         0.1585
     38 H12        -0.5732   -3.8324   -3.5459 H         1 <0>         0.1519
     39 H13         1.3087   -4.3470   -1.3068 H         1 <0>         0.2279
     40 H14        -0.9537   -3.9449    3.0139 H         1 <0>         0.1142
     41 H15        -1.3628   -2.4243    2.1842 H         1 <0>         0.0730
     42 H16        -2.4731   -3.8127    2.0962 H         1 <0>         0.0755
@<TRIPOS>BOND
     1    1    2 1
     2    1   27 1
     3    1   28 1
     4    1   29 1
     5    2    3 1
     6    3    8 ar
     7    3    4 ar
     8    4    5 ar
     9    4   30 1
    10    5   13 ar
    11    5    6 ar
    12    6    7 ar
    13    6   10 ar
    14    7    8 ar
    15    7   31 1
    16    8    9 1
    17    9   32 1
    18   10   11 ar
    19   10   33 1
    20   11   12 ar
    21   12   13 ar
    22   12   34 1
    23   13   14 1
    24   14   19 ar
    25   14   15 ar
    26   15   16 ar
    27   15   35 1
    28   16   17 ar
    29   17   18 ar
    30   17   36 1
    31   18   23 ar
    32   18   19 ar
    33   19   20 ar
    34   20   21 ar
    35   20   37 1
    36   21   22 ar
    37   21   25 1
    38   22   23 ar
    39   22   24 1
    40   23   38 1
    41   24   39 1
    42   25   26 1
    43   26   40 1
    44   26   41 1
    45   26   42 1
@<TRIPOS>MOLECULE
ZINC03847448
   42    45     0     0     0
SMALL
USER_CHARGES

@<TRIPOS>ATOM
      1 C1          0.5320    3.0421   -3.1809 C.3       1 <0>        -0.0672
      2 O1          1.6365    2.6838   -2.3480 O.3       1 <0>        -0.1970
      3 C2          1.4901    1.5788   -1.5709 C.ar      1 <0>         0.0979
      4 C3          0.3219    0.8723   -1.6161 C.ar      1 <0>        -0.2273
      5 C4          0.1723   -0.2683   -0.8139 C.ar      1 <0>         0.0198
      6 C5         -1.0064   -1.0325   -0.8193 C.ar      1 <0>        -0.1665
      7 C6         -1.0768   -2.1449    0.0017 C.ar      1 <0>         0.0475
      8 N1         -0.0554   -2.4963    0.7868 N.ar      1 <0>        -0.1695
      9 C7          1.0667   -1.8206    0.8319 C.ar      1 <0>        -0.0121
     10 C8          1.2361   -0.6757    0.0357 C.ar      1 <0>        -0.1250
     11 C9          2.4239    0.0715    0.0594 C.ar      1 <0>        -0.1030
     12 C10         2.5411    1.1773   -0.7324 C.ar      1 <0>         0.0585
     13 O2          3.6922    1.8998   -0.7082 O.3       1 <0>        -0.2761
     14 C11        -2.3107   -2.9628    0.0091 C.ar      1 <0>        -0.0877
     15 C12        -3.5559   -2.3679    0.1279 C.ar      1 <0>        -0.0298
     16 N2         -4.6674   -3.0864    0.1359 N.ar      1 <0>        -0.1761
     17 C13        -4.6720   -4.3959    0.0332 C.ar      1 <0>        -0.0057
     18 C14        -3.4655   -5.1017   -0.0929 C.ar      1 <0>        -0.1243
     19 C15        -2.2478   -4.3735   -0.1111 C.ar      1 <0>         0.0414
     20 C16        -1.0325   -5.0554   -0.2308 C.ar      1 <0>        -0.2093
     21 C17        -1.0317   -6.4181   -0.3381 C.ar      1 <0>         0.0901
     22 C18        -2.2344   -7.1407   -0.3249 C.ar      1 <0>         0.0593
     23 C19        -3.4342   -6.5016   -0.2048 C.ar      1 <0>        -0.1076
     24 O3         -2.2040   -8.4954   -0.4327 O.3       1 <0>        -0.2774
     25 O4          0.1482   -7.0811   -0.4584 O.3       1 <0>        -0.1991
     26 C20         1.3387   -6.2907   -0.4656 C.3       1 <0>        -0.0676
     27 H1          0.3169    2.2256   -3.8703 H         1 <0>         0.0687
     28 H2         -0.3436    3.2340   -2.5607 H         1 <0>         0.0732
     29 H3          0.7801    3.9398   -3.7471 H         1 <0>         0.1139
     30 H4         -0.4792    1.1874   -2.2684 H         1 <0>         0.1475
     31 H5         -1.8390   -0.7585   -1.4502 H         1 <0>         0.1465
     32 H6          1.8642   -2.1451    1.4840 H         1 <0>         0.1640
     33 H7          3.2403   -0.2265    0.7006 H         1 <0>         0.1512
     34 H8          4.3530    1.6086   -1.3513 H         1 <0>         0.2289
     35 H9         -3.6213   -1.2935    0.2162 H         1 <0>         0.1612
     36 H10        -5.6093   -4.9323    0.0454 H         1 <0>         0.1629
     37 H11        -0.1012   -4.5086   -0.2421 H         1 <0>         0.1634
     38 H12        -4.3534   -7.0684   -0.1955 H         1 <0>         0.1501
     39 H13        -2.2466   -8.8186   -1.3431 H         1 <0>         0.2273
     40 H14         1.4101   -5.7329    0.4681 H         1 <0>         0.0785
     41 H15         2.2067   -6.9421   -0.5670 H         1 <0>         0.1093
     42 H16         1.3073   -5.5942   -1.3034 H         1 <0>         0.0673
@<TRIPOS>BOND
     1    1    2 1
     2    1   27 1
     3    1   28 1
     4    1   29 1
     5    2    3 1
     6    3   12 ar
     7    3    4 ar
     8    4    5 ar
     9    4   30 1
    10    5   10 ar
    11    5    6 ar
    12    6    7 ar
    13    6   31 1
    14    7    8 ar
    15    7   14 1
    16    8    9 ar
    17    9   10 ar
    18    9   32 1
    19   10   11 ar
    20   11   12 ar
    21   11   33 1
    22   12   13 1
    23   13   34 1
    24   14   19 ar
    25   14   15 ar
    26   15   16 ar
    27   15   35 1
    28   16   17 ar
    29   17   18 ar
    30   17   36 1
    31   18   23 ar
    32   18   19 ar
    33   19   20 ar
    34   20   21 ar
    35   20   37 1
    36   21   22 ar
    37   21   25 1
    38   22   23 ar
    39   22   24 1
    40   23   38 1
    41   24   39 1
    42   25   26 1
    43   26   40 1
    44   26   41 1
    45   26   42 1
@<TRIPOS>MOLECULE
ZINC03848250
   38    40     0     0     0
SMALL
USER_CHARGES

@<TRIPOS>ATOM
      1 C1         -3.7826    3.8758    0.0361 C.3       1 <0>        -0.1417
      2 C2         -2.2999    4.1454    0.0261 C.2       1 <0>        -0.1367
      3 C3         -1.7103    5.3486    0.0239 C.2       1 <0>         0.0006
      4 N1         -0.3434    5.1998    0.0140 N.am      1 <0>        -0.1537
      5 C4         -0.0214    3.8541    0.0095 C.ar      1 <0>        -0.0055
      6 C5         -1.2318    3.1395    0.0169 C.ar      1 <0>        -0.0625
      7 C6         -1.2169    1.7445    0.0091 C.ar      1 <0>        -0.0805
      8 C7         -0.0126    1.0758    0.0052 C.ar      1 <0>        -0.1393
      9 C8          1.1813    1.7819   -0.0017 C.ar      1 <0>        -0.1068
     10 C9          1.1818    3.1608    0.0002 C.ar      1 <0>        -0.1488
     11 C10         0.5475    6.2112    0.0093 C.2       1 <0>         0.3314
     12 O1          0.1604    7.3599    0.0145 O.2       1 <0>        -0.3155
     13 C11         2.0249    5.9138   -0.0022 C.3       1 <0>        -0.3069
     14 S1          2.9530    7.4679   -0.0060 S.3       1 <0>         0.3185
     15 C12         4.5995    6.8408   -0.0193 C.2       1 <0>         0.0021
     16 N2          4.7912    5.5295   -0.0179 N.2       1 <0>        -0.3400
     17 C13         6.0191    5.0217   -0.0334 C.2       1 <0>         0.2055
     18 C14         7.1089    5.8851   -0.0508 C.2       1 <0>        -0.3011
     19 C15         6.8695    7.2548   -0.0410 C.2       1 <0>         0.2845
     20 N3          5.6148    7.6924   -0.0305 N.am      1 <0>        -0.2036
     21 O2          7.9024    8.1322   -0.0526 O.2       1 <0>        -0.4271
     22 O3          6.2067    3.6794   -0.0428 O.3       1 <0>        -0.2183
     23 C16        -2.4372    6.6686    0.0305 C.3       1 <0>        -0.1623
     24 H1         -4.1327    3.8086    1.0662 H         1 <0>         0.0867
     25 H2         -4.3029    4.6875   -0.4723 H         1 <0>         0.0828
     26 H3         -3.9845    2.9362   -0.4782 H         1 <0>         0.0842
     27 H4         -2.1447    1.1917    0.0103 H         1 <0>         0.1377
     28 H5          0.0021   -0.0041    0.0029 H         1 <0>         0.1358
     29 H6          2.1193    1.2467   -0.0088 H         1 <0>         0.1335
     30 H7          2.1170    3.7011   -0.0051 H         1 <0>         0.1333
     31 H8          2.2862    5.3368    0.8848 H         1 <0>         0.1523
     32 H9          2.2731    5.3403   -0.8951 H         1 <0>         0.1519
     33 H10         8.1180    5.5008   -0.0675 H         1 <0>         0.1867
     34 H11         5.4346    8.6761   -0.0311 H         1 <0>         0.2690
     35 H12         5.3193    3.2187   -0.0276 H         1 <0>         0.2461
     36 H13        -2.6055    6.9856    1.0597 H         1 <0>         0.0979
     37 H14        -1.8365    7.4168   -0.4866 H         1 <0>         0.1184
     38 H15        -3.3956    6.5582   -0.4769 H         1 <0>         0.0913
@<TRIPOS>BOND
     1    1    2 1
     2    1   24 1
     3    1   25 1
     4    1   26 1
     5    2    6 1
     6    2    3 2
     7    3    4 1
     8    3   23 1
     9    4    5 1
    10    4   11 am
    11    5   10 ar
    12    5    6 ar
    13    6    7 ar
    14    7    8 ar
    15    7   27 1
    16    8    9 ar
    17    8   28 1
    18    9   10 ar
    19    9   29 1
    20   10   30 1
    21   11   12 2
    22   11   13 1
    23   13   14 1
    24   13   31 1
    25   13   32 1
    26   14   15 1
    27   15   16 2
    28   15   20 1
    29   16   17 1
    30   17   22 1
    31   17   18 2
    32   18   33 1
    33   18   19 1
    34   19   20 am
    35   19   21 2
    36   20   34 1
    37   22   35 1
    38   23   36 1
    39   23   37 1
    40   23   38 1
@<TRIPOS>MOLECULE
ZINC03848466
   38    40     0     0     0
SMALL
USER_CHARGES

@<TRIPOS>ATOM
      1 C1         -4.7771    0.8567    0.0345 C.3       1 <0>        -0.2113
      2 C2         -3.5791    1.8084    0.0328 C.3       1 <0>        -0.0175
      3 O1         -2.3682    1.0498    0.0284 O.3       1 <0>        -0.2118
      4 C3         -1.2022    1.7486    0.0264 C.ar      1 <0>         0.0880
      5 C4         -1.2353    3.1460    0.0341 C.ar      1 <0>        -0.1705
      6 C5         -0.0855    3.8751    0.0271 C.ar      1 <0>        -0.0756
      7 C6          1.1538    3.2174    0.0172 C.ar      1 <0>         0.0472
      8 C7          1.1888    1.7989    0.0147 C.ar      1 <0>        -0.1437
      9 C8         -0.0125    1.0758    0.0222 C.ar      1 <0>        -0.1366
     10 C9          2.4432    1.1611    0.0042 C.ar      1 <0>         0.0968
     11 N1          3.5273    1.9083   -0.0027 N.ar      1 <0>        -0.2494
     12 C10         3.4573    3.2378    0.0000 C.ar      1 <0>         0.1927
     13 N2          2.3117    3.8897    0.0096 N.ar      1 <0>        -0.1764
     14 N3          4.6374    3.9661   -0.0071 N.pl3     1 <0>        -0.2565
     15 C11         4.5967    5.3520   -0.0045 C.2       1 <0>         0.2882
     16 N4          3.4217    5.9628   -0.0007 N.2       1 <0>        -0.2882
     17 C12         3.3446    7.2896    0.0067 C.2       1 <0>         0.2238
     18 C13         4.5178    8.0358    0.0112 C.2       1 <0>        -0.3389
     19 C14         5.7327    7.3598   -0.0033 C.2       1 <0>         0.2994
     20 N5          5.7337    6.0308   -0.0059 N.am      1 <0>        -0.2473
     21 O2          6.9008    8.0472   -0.0045 O.2       1 <0>        -0.4402
     22 O3          2.1382    7.9071    0.0210 O.3       1 <0>        -0.2225
     23 C15         2.5434   -0.3426    0.0014 C.3       1 <0>        -0.1729
     24 H1         -5.7008    1.4354    0.0379 H         1 <0>         0.0894
     25 H2         -4.7444    0.2298   -0.8566 H         1 <0>         0.0900
     26 H3         -4.7397    0.2270    0.9234 H         1 <0>         0.0900
     27 H4         -3.6119    2.4353    0.9240 H         1 <0>         0.0748
     28 H5         -3.6167    2.4383   -0.8560 H         1 <0>         0.0749
     29 H6         -2.1877    3.6552    0.0416 H         1 <0>         0.1429
     30 H7         -0.1272    4.9543    0.0286 H         1 <0>         0.1490
     31 H8          0.0022   -0.0042    0.0200 H         1 <0>         0.1516
     32 H9          5.4912    3.5059   -0.0140 H         1 <0>         0.2648
     33 H10         4.4861    9.1152    0.0213 H         1 <0>         0.1831
     34 H11         6.6035    5.5374   -0.0089 H         1 <0>         0.2530
     35 H12         1.4119    7.2198    0.0151 H         1 <0>         0.2512
     36 H13         2.5597   -0.7038   -1.0268 H         1 <0>         0.1050
     37 H14         3.4595   -0.6465    0.5079 H         1 <0>         0.1064
     38 H15         1.6836   -0.7649    0.5214 H         1 <0>         0.0972
@<TRIPOS>BOND
     1    1    2 1
     2    1   24 1
     3    1   25 1
     4    1   26 1
     5    2    3 1
     6    2   27 1
     7    2   28 1
     8    3    4 1
     9    4    9 ar
    10    4    5 ar
    11    5    6 ar
    12    5   29 1
    13    6    7 ar
    14    6   30 1
    15    7   13 ar
    16    7    8 ar
    17    8    9 ar
    18    8   10 ar
    19    9   31 1
    20   10   11 ar
    21   10   23 1
    22   11   12 ar
    23   12   13 ar
    24   12   14 1
    25   14   15 1
    26   14   32 1
    27   15   16 2
    28   15   20 1
    29   16   17 1
    30   17   22 1
    31   17   18 2
    32   18   33 1
    33   18   19 1
    34   19   20 am
    35   19   21 2
    36   20   34 1
    37   22   35 1
    38   23   36 1
    39   23   37 1
    40   23   38 1
@<TRIPOS>MOLECULE
ZINC03848745
   38    39     0     0     0
SMALL
USER_CHARGES

@<TRIPOS>ATOM
      1 C1          2.0362  -10.8430    0.3669 C.3       1 <0>        -0.2156
      2 C2          3.3510  -10.0609    0.3825 C.3       1 <0>        -0.0036
      3 O1          3.0695   -8.6392    0.2935 O.3       1 <0>        -0.2684
      4 C3          4.1276   -7.8048    0.2950 C.2       1 <0>         0.3531
      5 O2          5.2546   -8.2529    0.3687 O.2       1 <0>        -0.3668
      6 C4          3.9178   -6.3478    0.2072 C.ar      1 <0>        -0.1327
      7 C5          5.0144   -5.4806    0.2086 C.ar      1 <0>        -0.0461
      8 C6          4.8148   -4.1212    0.1261 C.ar      1 <0>        -0.1799
      9 C7          3.5235   -3.6098    0.0413 C.ar      1 <0>         0.0929
     10 C8          2.4294   -4.4696    0.0450 C.ar      1 <0>        -0.1473
     11 C9          2.6218   -5.8304    0.1219 C.ar      1 <0>        -0.0581
     12 N1          3.3251   -2.2324   -0.0417 N.am      1 <0>        -0.3228
     13 C10         2.2945   -1.7420   -0.7585 C.2       1 <0>         0.3158
     14 O3          1.5971   -2.4914   -1.4087 O.2       1 <0>        -0.3330
     15 C11         2.0087   -0.2623   -0.7520 C.3       1 <0>        -0.3273
     16 S1          0.5744    0.0797   -1.8016 S.3       1 <0>         0.3763
     17 C12         0.4691    1.8287   -1.6154 C.ar      1 <0>        -0.0485
     18 N2          1.3494    2.4509   -0.8441 N.ar      1 <0>        -0.2735
     19 C13         1.3012    3.7640   -0.6805 C.ar      1 <0>         0.0399
     20 C14         0.3104    4.4886   -1.3169 C.ar      1 <0>        -0.3542
     21 C15        -0.6009    3.8061   -2.1213 C.ar      1 <0>         0.2136
     22 N3         -0.4883    2.4899   -2.2499 N.ar      1 <0>        -0.2158
     23 O4         -1.5879    4.4774   -2.7630 O.3       1 <0>        -0.2173
     24 H1          1.4231  -10.5402    1.2158 H         1 <0>         0.0856
     25 H2          1.5012  -10.6359   -0.5599 H         1 <0>         0.0870
     26 H3          2.2475  -11.9103    0.4337 H         1 <0>         0.0889
     27 H4          3.9640  -10.3637   -0.4663 H         1 <0>         0.0898
     28 H5          3.8860  -10.2680    1.3093 H         1 <0>         0.0885
     29 H6          6.0170   -5.8769    0.2741 H         1 <0>         0.1577
     30 H7          5.6615   -3.4507    0.1268 H         1 <0>         0.1365
     31 H8          1.4284   -4.0690   -0.0165 H         1 <0>         0.1649
     32 H9          1.7723   -6.4975    0.1205 H         1 <0>         0.1542
     33 H10         3.9288   -1.6270    0.4165 H         1 <0>         0.2373
     34 H11         2.8755    0.2768   -1.1343 H         1 <0>         0.1367
     35 H12         1.7990    0.0628    0.2670 H         1 <0>         0.1374
     36 H13         2.0280    4.2635   -0.0569 H         1 <0>         0.1667
     37 H14         0.2440    5.5595   -1.1934 H         1 <0>         0.1439
     38 H15        -1.5194    5.4525   -2.5522 H         1 <0>         0.2444
@<TRIPOS>BOND
     1    1    2 1
     2    1   24 1
     3    1   25 1
     4    1   26 1
     5    2    3 1
     6    2   27 1
     7    2   28 1
     8    3    4 1
     9    4    5 2
    10    4    6 1
    11    6   11 ar
    12    6    7 ar
    13    7    8 ar
    14    7   29 1
    15    8    9 ar
    16    8   30 1
    17    9   10 ar
    18    9   12 1
    19   10   11 ar
    20   10   31 1
    21   11   32 1
    22   12   13 am
    23   12   33 1
    24   13   14 2
    25   13   15 1
    26   15   16 1
    27   15   34 1
    28   15   35 1
    29   16   17 1
    30   17   18 ar
    31   17   22 ar
    32   18   19 ar
    33   19   36 1
    34   19   20 ar
    35   20   37 1
    36   20   21 ar
    37   21   22 ar
    38   21   23 1
    39   23   38 1
@<TRIPOS>MOLECULE
ZINC03848752
   38    40     0     0     0
SMALL
USER_CHARGES

@<TRIPOS>ATOM
      1 C1          2.5005    1.5456    0.0352 C.3       1 <0>        -0.1338
      2 C2          1.0415    1.9230    0.0476 C.2       1 <0>        -0.0897
      3 C3         -0.0125    1.0755    0.0474 C.2       1 <0>        -0.2352
      4 C4         -1.1431    1.9350    0.0548 C.2       1 <0>         0.0028
      5 N1         -0.6739    3.1551    0.0680 N.2       1 <0>        -0.0777
      6 O1          0.5352    3.1645    0.0607 O.3       1 <0>         0.0470
      7 N2         -2.4850    1.5538    0.0525 N.am      1 <0>        -0.2832
      8 C5         -2.8142    0.2469    0.0422 C.2       1 <0>         0.3246
      9 O2         -1.9438   -0.5976    0.0349 O.2       1 <0>        -0.3419
     10 C6         -4.2639   -0.1649    0.0396 C.3       1 <0>        -0.3206
     11 S1         -4.3778   -1.9713    0.0252 S.3       1 <0>         0.3657
     12 C7         -6.1289   -2.1674    0.0245 C.ar      1 <0>        -0.0408
     13 N3         -6.6409   -3.3886    0.0312 N.ar      1 <0>        -0.2235
     14 C8         -7.9600   -3.5742    0.0577 C.ar      1 <0>         0.1392
     15 C9         -8.8001   -2.4618    0.0678 C.ar      1 <0>        -0.3467
     16 C10        -8.2227   -1.1960    0.0165 C.ar      1 <0>         0.2146
     17 N4         -6.8990   -1.0884    0.0173 N.ar      1 <0>        -0.2750
     18 O3         -9.0013   -0.0866    0.0097 O.3       1 <0>        -0.2254
     19 C11        -8.5266   -4.9449    0.0764 C.ar      1 <0>        -0.0574
     20 C12        -9.9075   -5.1305    0.1099 C.ar      1 <0>        -0.1037
     21 C13       -10.4292   -6.4081    0.1212 C.ar      1 <0>        -0.1369
     22 C14        -9.5842   -7.5032    0.1114 C.ar      1 <0>        -0.1072
     23 C15        -8.2128   -7.3249    0.0834 C.ar      1 <0>        -0.1382
     24 C16        -7.6800   -6.0519    0.0661 C.ar      1 <0>        -0.0739
     25 H1          2.8457    1.4631   -0.9953 H         1 <0>         0.0988
     26 H2          3.0784    2.3120    0.5518 H         1 <0>         0.0951
     27 H3          2.6326    0.5888    0.5404 H         1 <0>         0.1027
     28 H4          0.0022   -0.0043    0.0386 H         1 <0>         0.2087
     29 H5         -3.1811    2.2293    0.0583 H         1 <0>         0.2477
     30 H6         -4.7533    0.2228    0.9330 H         1 <0>         0.1415
     31 H7         -4.7542    0.2372   -0.8469 H         1 <0>         0.1423
     32 H8         -9.8731   -2.5795    0.0976 H         1 <0>         0.1462
     33 H9         -9.9645   -0.3554    0.0101 H         1 <0>         0.2452
     34 H10       -10.5680   -4.2761    0.1224 H         1 <0>         0.1286
     35 H11       -11.4992   -6.5531    0.1431 H         1 <0>         0.1328
     36 H12        -9.9968   -8.5012    0.1252 H         1 <0>         0.1320
     37 H13        -7.5577   -8.1835    0.0755 H         1 <0>         0.1362
     38 H14        -6.6091   -5.9138    0.0442 H         1 <0>         0.1590
@<TRIPOS>BOND
     1    1    2 1
     2    1   25 1
     3    1   26 1
     4    1   27 1
     5    2    6 1
     6    2    3 2
     7    3    4 1
     8    3   28 1
     9    4    5 2
    10    4    7 1
    11    5    6 1
    12    7    8 am
    13    7   29 1
    14    8    9 2
    15    8   10 1
    16   10   11 1
    17   10   30 1
    18   10   31 1
    19   11   12 1
    20   12   13 ar
    21   12   17 ar
    22   13   14 ar
    23   14   19 1
    24   14   15 ar
    25   15   32 1
    26   15   16 ar
    27   16   17 ar
    28   16   18 1
    29   18   33 1
    30   19   24 ar
    31   19   20 ar
    32   20   21 ar
    33   20   34 1
    34   21   22 ar
    35   21   35 1
    36   22   23 ar
    37   22   36 1
    38   23   24 ar
    39   23   37 1
    40   24   38 1
@<TRIPOS>MOLECULE
ZINC03848773
   43    45     0     0     0
SMALL
USER_CHARGES

@<TRIPOS>ATOM
      1 C1         -2.2554    3.2128    2.3732 C.3       1 <0>        -0.1941
      2 C2         -1.3093    2.8780    1.2184 C.3       1 <0>        -0.2071
      3 C3         -1.2971    1.7970    0.0447 C.3       1 <0>        -0.2274
      4 C4          0.0312    1.0832    0.1590 C.2       1 <0>         0.0258
      5 O1          0.0817   -0.1117    0.3261 O.3       1 <0>        -0.1795
      6 C5          1.2970    1.9100    0.0579 C.2       1 <0>        -0.4459
      7 C6          0.9016    3.3649    0.2107 C.2       1 <0>         0.3175
      8 O2          1.3289    4.2069   -0.5422 O.2       1 <0>        -0.2435
      9 C7         -0.0437    3.7323    1.3324 C.3       1 <0>        -0.1483
     10 S1          2.7222    0.8242   -0.1986 S.3       1 <0>         0.3108
     11 C8          4.0255    2.0078   -0.1264 C.2       1 <0>        -0.2106
     12 N1          3.8942    3.3009    0.0658 N.2       1 <0>        -0.0576
     13 N2          5.0478    3.8671    0.0621 N.2       1 <0>        -0.0710
     14 C9          5.9867    2.9705   -0.1326 C.2       1 <0>        -0.0355
     15 N3          5.3614    1.7511   -0.2540 N.pl3     1 <0>        -0.1573
     16 C10         5.9954    0.4493   -0.4767 C.3       1 <0>        -0.0728
     17 C11         7.4416    3.2226   -0.2017 C.ar      1 <0>        -0.0167
     18 C12         7.9703    4.4131    0.3005 C.ar      1 <0>        -0.0706
     19 C13         9.3282    4.6423    0.2385 C.ar      1 <0>        -0.1544
     20 C14        10.1686    3.6955   -0.3321 C.ar      1 <0>         0.0815
     21 C15         9.6461    2.5124   -0.8376 C.ar      1 <0>        -0.1552
     22 C16         8.2899    2.2734   -0.7746 C.ar      1 <0>        -0.1211
     23 O3         11.5059    3.9277   -0.3965 O.3       1 <0>        -0.2919
     24 C17        -2.0050    3.1731   -0.1119 C.3       1 <0>        -0.0165
     25 H1         -2.5240    4.2683    2.3287 H         1 <0>         0.0963
     26 H2         -3.1566    2.6050    2.2926 H         1 <0>         0.0742
     27 H3         -1.7598    3.0037    3.3213 H         1 <0>         0.0774
     28 H4         -2.1048    1.0651    0.0362 H         1 <0>         0.0808
     29 H5         -1.4229    2.4710    0.8920 H         1 <0>         0.2352
     30 H6          1.0375   -0.4011    0.3771 H         1 <0>         0.2517
     31 H7          0.4382    3.5439    2.2917 H         1 <0>         0.1074
     32 H8         -0.3076    4.7870    1.2561 H         1 <0>         0.1269
     33 H9          6.1759    0.3107   -1.5427 H         1 <0>         0.0964
     34 H10         6.9431    0.4101    0.0604 H         1 <0>         0.1097
     35 H11         5.3390   -0.3415   -0.1136 H         1 <0>         0.0997
     36 H12         7.3167    5.1518    0.7405 H         1 <0>         0.1608
     37 H13         9.7385    5.5610    0.6308 H         1 <0>         0.1472
     38 H14        10.3031    1.7784   -1.2803 H         1 <0>         0.1421
     39 H15         7.8843    1.3531   -1.1683 H         1 <0>         0.1329
     40 H16        11.7884    4.3781   -1.2041 H         1 <0>         0.2312
     41 H17        -1.3309    2.9358   -0.9349 H         1 <0>         0.0938
     42 H18        -2.9061    2.5653   -0.1934 H         1 <0>         0.0562
     43 H19        -2.2736    4.2286   -0.1551 H         1 <0>         0.0218
@<TRIPOS>BOND
     1    1    2 1
     2    1   25 1
     3    1   26 1
     4    1   27 1
     5    2    9 1
     6    2    3 1
     7    2   24 1
     8    3    4 1
     9    3   28 1
    10    3   29 1
    11    4    6 2
    12    4    5 1
    13    5   30 1
    14    6   10 1
    15    6    7 1
    16    7    9 1
    17    7    8 2
    18    9   31 1
    19    9   32 1
    20   10   11 1
    21   11   15 1
    22   11   12 2
    23   12   13 1
    24   13   14 2
    25   14   15 1
    26   14   17 1
    27   15   16 1
    28   16   33 1
    29   16   34 1
    30   16   35 1
    31   17   22 ar
    32   17   18 ar
    33   18   19 ar
    34   18   36 1
    35   19   20 ar
    36   19   37 1
    37   20   21 ar
    38   20   23 1
    39   21   22 ar
    40   21   38 1
    41   22   39 1
    42   23   40 1
    43   24   41 1
    44   24   42 1
    45   24   43 1
@<TRIPOS>MOLECULE
ZINC03848773
   43    45     0     0     0
SMALL
USER_CHARGES

@<TRIPOS>ATOM
      1 C1         -2.2554    3.2128    2.3732 C.3       1 <0>        -0.1905
      2 C2         -1.3093    2.8780    1.2184 C.3       1 <0>        -0.2214
      3 C3         -1.2971    1.7970    0.0447 C.3       1 <0>        -0.3421
      4 C4          0.0312    1.0832    0.1590 C.2       1 <0>         0.1915
      5 O1          0.0817   -0.1117    0.3261 O.2       1 <0>        -0.2581
      6 C5          1.2970    1.9100    0.0579 C.3       1 <0>        -0.3610
      7 C6          0.9016    3.3649    0.2107 C.2       1 <0>         0.2952
      8 O2          1.3289    4.2069   -0.5422 O.2       1 <0>        -0.2313
      9 C7         -0.0437    3.7323    1.3324 C.3       1 <0>        -0.1547
     10 S1          2.7222    0.8242   -0.1986 S.3       1 <0>         0.3772
     11 C8          4.0255    2.0078   -0.1264 C.2       1 <0>        -0.2360
     12 N1          3.8942    3.3009    0.0658 N.2       1 <0>        -0.0824
     13 N2          5.0478    3.8671    0.0621 N.2       1 <0>        -0.0714
     14 C9          5.9867    2.9705   -0.1326 C.2       1 <0>        -0.0364
     15 N3          5.3614    1.7511   -0.2540 N.pl3     1 <0>        -0.1534
     16 C10         5.9954    0.4493   -0.4767 C.3       1 <0>        -0.0739
     17 C11         7.4416    3.2226   -0.2017 C.ar      1 <0>        -0.0166
     18 C12         7.9703    4.4131    0.3005 C.ar      1 <0>        -0.0715
     19 C13         9.3282    4.6423    0.2385 C.ar      1 <0>        -0.1546
     20 C14        10.1686    3.6955   -0.3321 C.ar      1 <0>         0.0817
     21 C15         9.6461    2.5124   -0.8376 C.ar      1 <0>        -0.1548
     22 C16         8.2899    2.2734   -0.7746 C.ar      1 <0>        -0.1206
     23 O3         11.5059    3.9277   -0.3965 O.3       1 <0>        -0.2917
     24 C17        -2.0050    3.1731   -0.1119 C.3       1 <0>         0.0130
     25 H1         -2.5240    4.2683    2.3287 H         1 <0>         0.0978
     26 H2         -3.1566    2.6050    2.2926 H         1 <0>         0.0787
     27 H3         -1.7598    3.0037    3.3213 H         1 <0>         0.0805
     28 H4         -2.1048    1.0651    0.0362 H         1 <0>         0.1050
     29 H5         -1.4229    2.4710    0.8920 H         1 <0>         0.2444
     30 H6          0.9169    2.1760   -0.8280 H         1 <0>         0.1329
     31 H7          0.4382    3.5439    2.2917 H         1 <0>         0.1182
     32 H8         -0.3076    4.7870    1.2561 H         1 <0>         0.1305
     33 H9          6.1759    0.3107   -1.5427 H         1 <0>         0.0950
     34 H10         6.9431    0.4101    0.0604 H         1 <0>         0.1099
     35 H11         5.3390   -0.3415   -0.1136 H         1 <0>         0.1053
     36 H12         7.3167    5.1518    0.7405 H         1 <0>         0.1601
     37 H13         9.7385    5.5610    0.6308 H         1 <0>         0.1469
     38 H14        10.3031    1.7784   -1.2803 H         1 <0>         0.1423
     39 H15         7.8843    1.3531   -1.1683 H         1 <0>         0.1336
     40 H16        11.7884    4.3781   -1.2041 H         1 <0>         0.2309
     41 H17        -1.3309    2.9358   -0.9349 H         1 <0>         0.0700
     42 H18        -2.9061    2.5653   -0.1934 H         1 <0>         0.0582
     43 H19        -2.2736    4.2286   -0.1551 H         1 <0>         0.0235
@<TRIPOS>BOND
     1    1    2 1
     2    1   25 1
     3    1   26 1
     4    1   27 1
     5    2    9 1
     6    2    3 1
     7    2   24 1
     8    3    4 1
     9    3   28 1
    10    3   29 1
    11    4    6 1
    12    4    5 2
    13    6   30 1
    14    6   10 1
    15    6    7 1
    16    7    9 1
    17    7    8 2
    18    9   31 1
    19    9   32 1
    20   10   11 1
    21   11   15 1
    22   11   12 2
    23   12   13 1
    24   13   14 2
    25   14   15 1
    26   14   17 1
    27   15   16 1
    28   16   33 1
    29   16   34 1
    30   16   35 1
    31   17   22 ar
    32   17   18 ar
    33   18   19 ar
    34   18   36 1
    35   19   20 ar
    36   19   37 1
    37   20   21 ar
    38   20   23 1
    39   21   22 ar
    40   21   38 1
    41   22   39 1
    42   23   40 1
    43   24   41 1
    44   24   42 1
    45   24   43 1
@<TRIPOS>MOLECULE
ZINC03848801
   39    40     0     0     0
SMALL
USER_CHARGES

@<TRIPOS>ATOM
      1 C1          1.4255   -1.9037   -2.2139 C.3       1 <0>        -0.1958
      2 C2          1.7012   -0.7170   -1.2884 C.3       1 <0>        -0.1892
      3 C3          0.4137    0.0171   -1.0156 C.2       1 <0>         0.3007
      4 O1         -0.6226   -0.3707   -1.5126 O.2       1 <0>        -0.3547
      5 N1          0.4136    1.1045   -0.2195 N.am      1 <0>        -0.3289
      6 C4         -0.7647    1.8401   -0.0386 C.ar      1 <0>         0.0472
      7 C5         -0.7059    3.2192    0.1130 C.ar      1 <0>        -0.1458
      8 C6         -1.8676    3.9448    0.2855 C.ar      1 <0>        -0.1086
      9 C7         -3.0940    3.2941    0.3194 C.ar      1 <0>         0.0395
     10 C8         -3.1523    1.9143    0.1735 C.ar      1 <0>        -0.1425
     11 C9         -1.9911    1.1895   -0.0052 C.ar      1 <0>        -0.1112
     12 N2         -4.2722    4.0297    0.5002 N.am      1 <0>        -0.3199
     13 C10        -4.3857    5.2623   -0.0329 C.2       1 <0>         0.3158
     14 O2         -3.4388    5.7686   -0.5971 O.2       1 <0>        -0.3429
     15 C11        -5.6890    6.0117    0.0721 C.3       1 <0>        -0.3264
     16 S1         -5.5245    7.6240   -0.7338 S.3       1 <0>         0.3756
     17 C12        -7.1442    8.2651   -0.4687 C.ar      1 <0>        -0.0483
     18 N3         -8.0328    7.5280    0.1825 N.ar      1 <0>        -0.2725
     19 C13        -9.2593    7.9769    0.4003 C.ar      1 <0>         0.0397
     20 C14        -9.6150    9.2274   -0.0701 C.ar      1 <0>        -0.3555
     21 C15        -8.6588    9.9790   -0.7514 C.ar      1 <0>         0.2128
     22 N4         -7.4442    9.4725   -0.9253 N.ar      1 <0>        -0.2165
     23 O3         -8.9650   11.2096   -1.2295 O.3       1 <0>        -0.2180
     24 H1          0.7159   -2.5796   -1.7365 H         1 <0>         0.0894
     25 H2          1.0073   -1.5423   -3.1534 H         1 <0>         0.0927
     26 H3          2.3567   -2.4347   -2.4112 H         1 <0>         0.0726
     27 H4          2.4107   -0.0412   -1.7657 H         1 <0>         0.1015
     28 H5          2.1194   -1.0785   -0.3489 H         1 <0>         0.0979
     29 H6          1.2285    1.3755    0.2315 H         1 <0>         0.2312
     30 H7          0.2483    3.7247    0.0910 H         1 <0>         0.1342
     31 H8         -1.8223    5.0179    0.3986 H         1 <0>         0.1672
     32 H9         -4.1061    1.4084    0.1995 H         1 <0>         0.1332
     33 H10        -2.0365    0.1165   -0.1193 H         1 <0>         0.1675
     34 H11        -5.0066    3.6519    1.0091 H         1 <0>         0.2337
     35 H12        -6.4774    5.4396   -0.4171 H         1 <0>         0.1373
     36 H13        -5.9423    6.1547    1.1226 H         1 <0>         0.1341
     37 H14        -9.9740    7.3729    0.9395 H         1 <0>         0.1661
     38 H15       -10.6114    9.6134    0.0868 H         1 <0>         0.1430
     39 H16        -9.9159   11.4260   -1.0081 H         1 <0>         0.2438
@<TRIPOS>BOND
     1    1    2 1
     2    1   24 1
     3    1   25 1
     4    1   26 1
     5    2    3 1
     6    2   27 1
     7    2   28 1
     8    3    4 2
     9    3    5 am
    10    5    6 1
    11    5   29 1
    12    6   11 ar
    13    6    7 ar
    14    7    8 ar
    15    7   30 1
    16    8    9 ar
    17    8   31 1
    18    9   10 ar
    19    9   12 1
    20   10   11 ar
    21   10   32 1
    22   11   33 1
    23   12   13 am
    24   12   34 1
    25   13   14 2
    26   13   15 1
    27   15   16 1
    28   15   35 1
    29   15   36 1
    30   16   17 1
    31   17   18 ar
    32   17   22 ar
    33   18   19 ar
    34   19   37 1
    35   19   20 ar
    36   20   38 1
    37   20   21 ar
    38   21   22 ar
    39   21   23 1
    40   23   39 1
@<TRIPOS>MOLECULE
ZINC03848866
   38    40     0     0     0
SMALL
USER_CHARGES

@<TRIPOS>ATOM
      1 C1          2.7918    3.5462    8.0403 C.3       1 <0>        -0.2302
      2 C2          2.5800    2.0728    7.6867 C.3       1 <0>         0.0405
      3 H1          3.4757    1.4956    7.9160 H         1 <0>         0.1109
      4 C3          1.3703    1.5118    8.4520 C.3       1 <0>        -0.1276
      5 C4          0.4049    1.0773    7.3723 C.ar      1 <0>        -0.1256
      6 C5         -0.8467    0.4977    7.4559 C.ar      1 <0>        -0.0858
      7 C6         -1.5457    0.1860    6.3048 C.ar      1 <0>        -0.1538
      8 C7         -0.9895    0.4562    5.0678 C.ar      1 <0>        -0.0937
      9 C8          0.2584    1.0352    4.9796 C.ar      1 <0>        -0.1746
     10 C9          0.9710    1.3520    6.1378 C.ar      1 <0>         0.0570
     11 N1          2.2353    1.9348    6.2691 N.am      1 <0>        -0.2674
     12 C10         3.0240    2.3093    5.2422 C.2       1 <0>         0.3329
     13 O1          4.1080    2.8074    5.4605 O.2       1 <0>        -0.3450
     14 C11         2.5586    2.1091    3.8229 C.3       1 <0>        -0.3240
     15 S1          3.8294    2.7073    2.6813 S.3       1 <0>         0.3545
     16 C12         3.0452    2.3612    1.1419 C.ar      1 <0>        -0.0059
     17 N2          3.6828    2.6424    0.0147 N.ar      1 <0>        -0.2876
     18 C13         3.1297    2.3734   -1.1650 C.ar      1 <0>         0.2493
     19 C14         1.8654    1.7895   -1.2033 C.ar      1 <0>        -0.4236
     20 C15         1.2148    1.5415   -0.0013 C.ar      1 <0>         0.2399
     21 N3          1.8327    1.8263    1.1409 N.ar      1 <0>        -0.3090
     22 O2         -0.0165    0.9747    0.0075 O.3       1 <0>        -0.2279
     23 N4          3.8023    2.6701   -2.3399 N.pl3     1 <0>        -0.3834
     24 H2          1.8762    4.1031    7.8408 H         1 <0>         0.0825
     25 H3          3.0471    3.6333    9.0964 H         1 <0>         0.0816
     26 H4          3.6029    3.9521    7.4357 H         1 <0>         0.1098
     27 H5          0.9202    2.2836    9.0763 H         1 <0>         0.1048
     28 H6          1.6697    0.6584    9.0603 H         1 <0>         0.1011
     29 H7         -1.2796    0.2874    8.4227 H         1 <0>         0.1311
     30 H8         -2.5236   -0.2676    6.3713 H         1 <0>         0.1327
     31 H9         -1.5349    0.2135    4.1678 H         1 <0>         0.1380
     32 H10         0.6870    1.2440    4.0106 H         1 <0>         0.1554
     33 H11         1.6348    2.6646    3.6617 H         1 <0>         0.1470
     34 H12         2.3806    1.0485    3.6451 H         1 <0>         0.1460
     35 H13         1.3950    1.5513   -2.1458 H         1 <0>         0.1382
     36 H14        -0.3247    0.8326   -0.9331 H         1 <0>         0.2434
     37 H15         3.3929    2.4712   -3.1966 H         1 <0>         0.2310
     38 H16         4.6823    3.0766   -2.3057 H         1 <0>         0.2377
@<TRIPOS>BOND
     1    1    2 1
     2    1   24 1
     3    1   25 1
     4    1   26 1
     5    2    3 1
     6    2   11 1
     7    2    4 1
     8    4    5 1
     9    4   27 1
    10    4   28 1
    11    5   10 ar
    12    5    6 ar
    13    6    7 ar
    14    6   29 1
    15    7    8 ar
    16    7   30 1
    17    8    9 ar
    18    8   31 1
    19    9   10 ar
    20    9   32 1
    21   10   11 1
    22   11   12 am
    23   12   13 2
    24   12   14 1
    25   14   15 1
    26   14   33 1
    27   14   34 1
    28   15   16 1
    29   16   17 ar
    30   16   21 ar
    31   17   18 ar
    32   18   23 1
    33   18   19 ar
    34   19   35 1
    35   19   20 ar
    36   20   21 ar
    37   20   22 1
    38   22   36 1
    39   23   37 1
    40   23   38 1
@<TRIPOS>MOLECULE
ZINC03850098
   44    46     0     0     0
SMALL
USER_CHARGES

@<TRIPOS>ATOM
      1 C1         12.1659   -3.5224   -0.5650 C.3       1 <0>        -0.0554
      2 N1         11.1071   -2.6902   -1.1417 N.am      1 <0>        -0.2365
      3 C2         10.1905   -2.0634   -0.3128 C.2       1 <0>         0.1315
      4 C3          9.1957   -1.2786   -0.8861 C.2       1 <0>        -0.2630
      5 C4          9.1481   -1.1445   -2.2850 C.2       1 <0>         0.4011
      6 O1          8.2850   -0.4622   -2.8091 O.2       1 <0>        -0.3946
      7 N2         10.0677   -1.7793   -3.0409 N.am      1 <0>        -0.2937
      8 C5         11.0254   -2.5351   -2.4766 C.2       1 <0>         0.4117
      9 O2         11.8382   -3.0921   -3.1892 O.2       1 <0>        -0.3844
     10 C6         10.0221   -1.6425   -4.4987 C.3       1 <0>        -0.0539
     11 N3          8.4345   -0.7835    0.1643 N.pl3     1 <0>        -0.1312
     12 C7          8.9845   -1.2685    1.3088 C.2       1 <0>         0.2024
     13 N4         10.0186   -2.0283    1.0096 N.2       1 <0>        -0.2508
     14 N5          8.5297   -1.0096    2.5814 N.pl3     1 <0>        -0.3891
     15 C8          7.2680    0.0965    0.0596 C.3       1 <0>        -0.0471
     16 C9          5.9992   -0.7504   -0.0585 C.3       1 <0>         0.0304
     17 H1          5.9462   -1.4444    0.7803 H         1 <0>         0.1341
     18 C10         4.7725    0.1638   -0.0424 C.3       1 <0>        -0.0467
     19 O3          3.5855   -0.6319   -0.0353 O.3       1 <0>        -0.1961
     20 C11         2.3989    0.0304   -0.0208 C.ar      1 <0>         0.0933
     21 C12         1.2070   -0.6796   -0.0132 C.ar      1 <0>        -0.1536
     22 C13         0.0021   -0.0041    0.0020 C.ar      1 <0>        -0.0914
     23 C14        -0.0167    1.3784    0.0096 C.ar      1 <0>        -0.1651
     24 C15         1.1698    2.0883    0.0021 C.ar      1 <0>        -0.0890
     25 C16         2.3774    1.4175   -0.0131 C.ar      1 <0>        -0.2237
     26 O4          6.0294   -1.4854   -1.2836 O.3       1 <0>        -0.3202
     27 H2         12.7848   -3.9289   -1.3649 H         1 <0>         0.1212
     28 H3         12.7824   -2.9172    0.0996 H         1 <0>         0.0892
     29 H4         11.7182   -4.3405   -0.0006 H         1 <0>         0.0911
     30 H5         10.6255   -0.7871   -4.8025 H         1 <0>         0.0855
     31 H6         10.4161   -2.5475   -4.9611 H         1 <0>         0.1110
     32 H7          8.9908   -1.4911   -4.8174 H         1 <0>         0.1088
     33 H8          7.7564   -0.4391    2.7134 H         1 <0>         0.2303
     34 H9          8.9825   -1.3975    3.3465 H         1 <0>         0.2563
     35 H10         7.3670    0.7276   -0.8236 H         1 <0>         0.1363
     36 H11         7.2048    0.7235    0.9490 H         1 <0>         0.0933
     37 H12         4.7798    0.7974   -0.9293 H         1 <0>         0.0840
     38 H13         4.7965    0.7884    0.8506 H         1 <0>         0.0731
     39 H14         1.2211   -1.7595   -0.0195 H         1 <0>         0.1458
     40 H15        -0.9261   -0.5563    0.0076 H         1 <0>         0.1348
     41 H16        -0.9597    1.9047    0.0170 H         1 <0>         0.1310
     42 H17         1.1525    3.1682    0.0077 H         1 <0>         0.1297
     43 H18         3.3039    1.9724   -0.0187 H         1 <0>         0.1293
     44 H19         6.0767   -0.9305   -2.0742 H         1 <0>         0.2301
@<TRIPOS>BOND
     1    1    2 1
     2    1   27 1
     3    1   28 1
     4    1   29 1
     5    2    8 am
     6    2    3 1
     7    3   13 1
     8    3    4 2
     9    4    5 1
    10    4   11 1
    11    5    6 2
    12    5    7 am
    13    7    8 am
    14    7   10 1
    15    8    9 2
    16   10   30 1
    17   10   31 1
    18   10   32 1
    19   11   12 1
    20   11   15 1
    21   12   13 2
    22   12   14 1
    23   14   33 1
    24   14   34 1
    25   15   16 1
    26   15   35 1
    27   15   36 1
    28   16   17 1
    29   16   18 1
    30   16   26 1
    31   18   19 1
    32   18   37 1
    33   18   38 1
    34   19   20 1
    35   20   25 ar
    36   20   21 ar
    37   21   22 ar
    38   21   39 1
    39   22   23 ar
    40   22   40 1
    41   23   24 ar
    42   23   41 1
    43   24   25 ar
    44   24   42 1
    45   25   43 1
    46   26   44 1
@<TRIPOS>MOLECULE
ZINC03850098
   45    47     0     0     0
SMALL
USER_CHARGES

@<TRIPOS>ATOM
      1 C1         12.1659   -3.5224   -0.5650 C.3       1 <0>        -0.0807
      2 N1         11.1071   -2.6902   -1.1417 N.am      1 <0>        -0.2418
      3 C2         10.1905   -2.0634   -0.3128 C.2       1 <0>         0.1340
      4 C3          9.1957   -1.2786   -0.8861 C.2       1 <0>        -0.1665
      5 C4          9.1481   -1.1445   -2.2850 C.2       1 <0>         0.3888
      6 O1          8.2850   -0.4622   -2.8091 O.2       1 <0>        -0.3271
      7 N2         10.0677   -1.7793   -3.0409 N.am      1 <0>        -0.2813
      8 C5         11.0254   -2.5351   -2.4766 C.2       1 <0>         0.4092
      9 O2         11.8382   -3.0921   -3.1892 O.2       1 <0>        -0.3118
     10 C6         10.0221   -1.6425   -4.4987 C.3       1 <0>        -0.0607
     11 N3          8.4345   -0.7835    0.1643 N.pl3     1 <0>        -0.0725
     12 C7          8.9845   -1.2685    1.3088 C.cat     1 <0>         0.2547
     13 N4          8.5297   -1.0096    2.5814 N.pl3     1 <0>        -0.3595
     14 C8          7.2680    0.0965    0.0596 C.3       1 <0>        -0.0607
     15 C9          5.9992   -0.7504   -0.0585 C.3       1 <0>         0.0273
     16 H1          5.9462   -1.4444    0.7803 H         1 <0>         0.1332
     17 C10         4.7725    0.1638   -0.0424 C.3       1 <0>        -0.0371
     18 O3          3.5855   -0.6319   -0.0353 O.3       1 <0>        -0.1983
     19 C11         2.3989    0.0304   -0.0208 C.ar      1 <0>         0.0763
     20 C12         1.2070   -0.6796   -0.0132 C.ar      1 <0>        -0.1456
     21 C13         0.0021   -0.0041    0.0020 C.ar      1 <0>        -0.0852
     22 C14        -0.0167    1.3784    0.0096 C.ar      1 <0>        -0.1501
     23 C15         1.1698    2.0883    0.0021 C.ar      1 <0>        -0.0854
     24 C16         2.3774    1.4175   -0.0131 C.ar      1 <0>        -0.2229
     25 O4          6.0294   -1.4854   -1.2836 O.3       1 <0>        -0.3197
     26 H2         12.7848   -3.9289   -1.3649 H         1 <0>         0.1642
     27 H3         12.7824   -2.9172    0.0996 H         1 <0>         0.0919
     28 H4         11.7182   -4.3405   -0.0006 H         1 <0>         0.0938
     29 H5         10.6255   -0.7871   -4.8025 H         1 <0>         0.1060
     30 H6         10.4161   -2.5475   -4.9611 H         1 <0>         0.1288
     31 H7          8.9908   -1.4911   -4.8174 H         1 <0>         0.1243
     32 H8          7.7564   -0.4391    2.7134 H         1 <0>         0.2744
     33 H9          8.9825   -1.3975    3.3465 H         1 <0>         0.2705
     34 H10         7.3670    0.7276   -0.8236 H         1 <0>         0.1648
     35 H11         7.2048    0.7235    0.9490 H         1 <0>         0.1160
     36 H12         4.7798    0.7974   -0.9293 H         1 <0>         0.0921
     37 H13         4.7965    0.7884    0.8506 H         1 <0>         0.0773
     38 H14         1.2211   -1.7595   -0.0195 H         1 <0>         0.1474
     39 H15        -0.9261   -0.5563    0.0076 H         1 <0>         0.1446
     40 H16        -0.9597    1.9047    0.0170 H         1 <0>         0.1415
     41 H17         1.1525    3.1682    0.0077 H         1 <0>         0.1369
     42 H18         3.3039    1.9724   -0.0187 H         1 <0>         0.1217
     43 H19         6.0767   -0.9305   -2.0742 H         1 <0>         0.2387
     44 N5         10.0204   -2.0298    1.0117 N.pl3     1 <0>        -0.1629
     45 H20        10.6072   -2.5221    1.6954 H         1 <0>         0.3113
@<TRIPOS>BOND
     1    1    2 1
     2    1   26 1
     3    1   27 1
     4    1   28 1
     5    2    8 am
     6    2    3 1
     7    3    4 2
     8    3   44 1
     9    4    5 1
    10    4   11 1
    11    5    6 2
    12    5    7 am
    13    7    8 am
    14    7   10 1
    15    8    9 2
    16   10   29 1
    17   10   30 1
    18   10   31 1
    19   11   12 1
    20   11   14 1
    21   12   13 1
    22   12   44 2
    23   13   32 1
    24   13   33 1
    25   14   15 1
    26   14   34 1
    27   14   35 1
    28   15   16 1
    29   15   17 1
    30   15   25 1
    31   17   18 1
    32   17   36 1
    33   17   37 1
    34   18   19 1
    35   19   24 ar
    36   19   20 ar
    37   20   21 ar
    38   20   38 1
    39   21   22 ar
    40   21   39 1
    41   22   23 ar
    42   22   40 1
    43   23   24 ar
    44   23   41 1
    45   24   42 1
    46   25   43 1
    47   44   45 1
@<TRIPOS>MOLECULE
ZINC03850101
   44    46     0     0     0
SMALL
USER_CHARGES

@<TRIPOS>ATOM
      1 C1         -3.4334    2.1554    4.9710 C.3       1 <0>        -0.0519
      2 N1         -3.0577    1.3140    3.8320 N.am      1 <0>        -0.2365
      3 C2         -2.0541    1.7247    2.9693 C.2       1 <0>         0.1355
      4 C3         -1.7171    0.9070    1.8961 C.2       1 <0>        -0.2785
      5 C4         -2.4014   -0.3082    1.7175 C.2       1 <0>         0.3917
      6 O1         -2.1224   -1.0406    0.7842 O.2       1 <0>        -0.3822
      7 N2         -3.3700   -0.6550    2.5901 N.am      1 <0>        -0.2951
      8 C5         -3.6881    0.1427    3.6242 C.2       1 <0>         0.4106
      9 O2         -4.5664   -0.2024    4.3911 O.2       1 <0>        -0.3841
     10 C6         -4.0861   -1.9200    2.4078 C.3       1 <0>        -0.0551
     11 N3         -0.6984    1.5583    1.2133 N.pl3     1 <0>        -0.1344
     12 C7         -0.4564    2.7162    1.8830 C.2       1 <0>         0.2169
     13 N4         -1.2697    2.8023    2.9161 N.2       1 <0>        -0.2549
     14 N5          0.4884    3.6538    1.5343 N.pl3     1 <0>        -0.3834
     15 C8         -0.0127    1.0858    0.0080 C.3       1 <0>        -0.0432
     16 C9         -0.7527    1.5927   -1.2315 C.3       1 <0>         0.0237
     17 H1         -1.7985    1.2898   -1.1795 H         1 <0>         0.1638
     18 C10        -0.1114    0.9981   -2.4870 C.3       1 <0>        -0.0439
     19 O3         -0.8722    1.3773   -3.6356 O.3       1 <0>        -0.1960
     20 C11        -0.4345    0.9283   -4.8413 C.ar      1 <0>         0.0941
     21 C12         0.7072    0.1438   -4.9179 C.ar      1 <0>        -0.2233
     22 C13         1.1466   -0.3165   -6.1440 C.ar      1 <0>        -0.0889
     23 C14         0.4566    0.0143   -7.2957 C.ar      1 <0>        -0.1651
     24 C15        -0.6782    0.8008   -7.2226 C.ar      1 <0>        -0.0914
     25 C16        -1.1252    1.2585   -5.9983 C.ar      1 <0>        -0.1533
     26 O4         -0.6718    3.0184   -1.2848 O.3       1 <0>        -0.3223
     27 H2         -4.2241    2.8426    4.6698 H         1 <0>         0.0865
     28 H3         -3.7903    1.5256    5.7859 H         1 <0>         0.1101
     29 H4         -2.5654    2.7240    5.3046 H         1 <0>         0.1028
     30 H5         -4.8273   -2.0351    3.1987 H         1 <0>         0.1206
     31 H6         -4.5858   -1.9184    1.4391 H         1 <0>         0.0937
     32 H7         -3.3781   -2.7477    2.4501 H         1 <0>         0.0921
     33 H8          1.0465    3.5128    0.7536 H         1 <0>         0.2267
     34 H9          0.5962    4.4557    2.0692 H         1 <0>         0.2562
     35 H10         0.0021   -0.0041    0.0020 H         1 <0>         0.1433
     36 H11         1.0099    1.4631    0.0003 H         1 <0>         0.0874
     37 H12         0.9076    1.3722   -2.5864 H         1 <0>         0.0687
     38 H13        -0.0932   -0.0887   -2.4058 H         1 <0>         0.0925
     39 H14         1.2492   -0.1108   -4.0191 H         1 <0>         0.1292
     40 H15         2.0328   -0.9309   -6.2037 H         1 <0>         0.1295
     41 H16         0.8045   -0.3425   -8.2538 H         1 <0>         0.1308
     42 H17        -1.2158    1.0573   -8.1235 H         1 <0>         0.1347
     43 H18        -2.0115    1.8731   -5.9418 H         1 <0>         0.1458
     44 H19         0.2318    3.3595   -1.3326 H         1 <0>         0.1970
@<TRIPOS>BOND
     1    1    2 1
     2    1   27 1
     3    1   28 1
     4    1   29 1
     5    2    8 am
     6    2    3 1
     7    3   13 1
     8    3    4 2
     9    4    5 1
    10    4   11 1
    11    5    6 2
    12    5    7 am
    13    7    8 am
    14    7   10 1
    15    8    9 2
    16   10   30 1
    17   10   31 1
    18   10   32 1
    19   11   12 1
    20   11   15 1
    21   12   13 2
    22   12   14 1
    23   14   33 1
    24   14   34 1
    25   15   16 1
    26   15   35 1
    27   15   36 1
    28   16   17 1
    29   16   18 1
    30   16   26 1
    31   18   19 1
    32   18   37 1
    33   18   38 1
    34   19   20 1
    35   20   25 ar
    36   20   21 ar
    37   21   22 ar
    38   21   39 1
    39   22   23 ar
    40   22   40 1
    41   23   24 ar
    42   23   41 1
    43   24   25 ar
    44   24   42 1
    45   25   43 1
    46   26   44 1
@<TRIPOS>MOLECULE
ZINC03850101
   45    47     0     0     0
SMALL
USER_CHARGES

@<TRIPOS>ATOM
      1 C1         -3.4334    2.1554    4.9710 C.3       1 <0>        -0.0705
      2 N1         -3.0577    1.3140    3.8320 N.am      1 <0>        -0.2425
      3 C2         -2.0541    1.7247    2.9693 C.2       1 <0>         0.1370
      4 C3         -1.7171    0.9070    1.8961 C.2       1 <0>        -0.1804
      5 C4         -2.4014   -0.3082    1.7175 C.2       1 <0>         0.3783
      6 O1         -2.1224   -1.0406    0.7842 O.2       1 <0>        -0.3130
      7 N2         -3.3700   -0.6550    2.5901 N.am      1 <0>        -0.2826
      8 C5         -3.6881    0.1427    3.6242 C.2       1 <0>         0.4083
      9 O2         -4.5664   -0.2024    4.3911 O.2       1 <0>        -0.3118
     10 C6         -4.0861   -1.9200    2.4078 C.3       1 <0>        -0.0617
     11 N3         -0.6984    1.5583    1.2133 N.pl3     1 <0>        -0.0773
     12 C7         -0.4564    2.7162    1.8830 C.cat     1 <0>         0.2688
     13 N4          0.4884    3.6538    1.5343 N.pl3     1 <0>        -0.3537
     14 C8         -0.0127    1.0858    0.0080 C.3       1 <0>        -0.0558
     15 C9         -0.7527    1.5927   -1.2315 C.3       1 <0>         0.0198
     16 H1         -1.7985    1.2898   -1.1795 H         1 <0>         0.1673
     17 C10        -0.1114    0.9981   -2.4870 C.3       1 <0>        -0.0342
     18 O3         -0.8722    1.3773   -3.6356 O.3       1 <0>        -0.1981
     19 C11        -0.4345    0.9283   -4.8413 C.ar      1 <0>         0.0771
     20 C12         0.7072    0.1438   -4.9179 C.ar      1 <0>        -0.2225
     21 C13         1.1466   -0.3165   -6.1440 C.ar      1 <0>        -0.0853
     22 C14         0.4566    0.0143   -7.2957 C.ar      1 <0>        -0.1502
     23 C15        -0.6782    0.8008   -7.2226 C.ar      1 <0>        -0.0852
     24 C16        -1.1252    1.2585   -5.9983 C.ar      1 <0>        -0.1454
     25 O4         -0.6718    3.0184   -1.2848 O.3       1 <0>        -0.3258
     26 H2         -4.2241    2.8426    4.6698 H         1 <0>         0.1104
     27 H3         -3.7903    1.5256    5.7859 H         1 <0>         0.1520
     28 H4         -2.5654    2.7240    5.3046 H         1 <0>         0.0792
     29 H5         -4.8273   -2.0351    3.1987 H         1 <0>         0.1371
     30 H6         -4.5858   -1.9184    1.4391 H         1 <0>         0.1123
     31 H7         -3.3781   -2.7477    2.4501 H         1 <0>         0.1108
     32 H8          1.0465    3.5128    0.7536 H         1 <0>         0.2706
     33 H9          0.5962    4.4557    2.0692 H         1 <0>         0.2704
     34 H10         0.0021   -0.0041    0.0020 H         1 <0>         0.1719
     35 H11         1.0099    1.4631    0.0003 H         1 <0>         0.1096
     36 H12         0.9076    1.3722   -2.5864 H         1 <0>         0.0761
     37 H13        -0.0932   -0.0887   -2.4058 H         1 <0>         0.0976
     38 H14         1.2492   -0.1108   -4.0191 H         1 <0>         0.1216
     39 H15         2.0328   -0.9309   -6.2037 H         1 <0>         0.1368
     40 H16         0.8045   -0.3425   -8.2538 H         1 <0>         0.1414
     41 H17        -1.2158    1.0573   -8.1235 H         1 <0>         0.1444
     42 H18        -2.0115    1.8731   -5.9418 H         1 <0>         0.1474
     43 H19         0.2318    3.3595   -1.3326 H         1 <0>         0.2046
     44 N5         -1.2698    2.8047    2.9181 N.pl3     1 <0>        -0.1657
     45 H20        -1.2959    3.5859    3.5839 H         1 <0>         0.3113
@<TRIPOS>BOND
     1    1    2 1
     2    1   26 1
     3    1   27 1
     4    1   28 1
     5    2    8 am
     6    2    3 1
     7    3    4 2
     8    3   44 1
     9    4    5 1
    10    4   11 1
    11    5    6 2
    12    5    7 am
    13    7    8 am
    14    7   10 1
    15    8    9 2
    16   10   29 1
    17   10   30 1
    18   10   31 1
    19   11   12 1
    20   11   14 1
    21   12   13 1
    22   12   44 2
    23   13   32 1
    24   13   33 1
    25   14   15 1
    26   14   34 1
    27   14   35 1
    28   15   16 1
    29   15   17 1
    30   15   25 1
    31   17   18 1
    32   17   36 1
    33   17   37 1
    34   18   19 1
    35   19   24 ar
    36   19   20 ar
    37   20   21 ar
    38   20   38 1
    39   21   22 ar
    40   21   39 1
    41   22   23 ar
    42   22   40 1
    43   23   24 ar
    44   23   41 1
    45   24   42 1
    46   25   43 1
    47   44   45 1
@<TRIPOS>MOLECULE
ZINC03850330
   41    43     0     0     0
SMALL
USER_CHARGES

@<TRIPOS>ATOM
      1 C1         -2.3106   -6.9890    0.6385 C.3       1 <0>        -0.0682
      2 N1         -2.8287   -5.6332    0.4394 N.pl3     1 <0>        -0.1741
      3 C2         -4.2101   -5.4121    0.3893 C.ar      1 <0>         0.0382
      4 C3         -5.0870   -6.4891    0.4005 C.ar      1 <0>        -0.1540
      5 C4         -6.4496   -6.2699    0.3564 C.ar      1 <0>        -0.1364
      6 C5         -6.9424   -4.9749    0.2899 C.ar      1 <0>         0.0560
      7 C6         -6.0671   -3.8988    0.2733 C.ar      1 <0>        -0.1288
      8 C7         -4.7044   -4.1160    0.3226 C.ar      1 <0>        -0.1399
      9 O1         -8.2842   -4.7602    0.2404 O.3       1 <0>        -0.2906
     10 C8         -1.9610   -4.5814    0.3022 C.2       1 <0>         0.1124
     11 N2         -2.2420   -3.2910    0.2101 N.2       1 <0>        -0.3738
     12 C9         -1.3095   -2.3737    0.0798 C.2       1 <0>         0.3203
     13 O2         -1.5812   -1.1865   -0.0038 O.2       1 <0>        -0.2786
     14 C10         0.0896   -2.8598    0.0406 C.2       1 <0>        -0.3387
     15 C11         1.2485   -2.1645   -0.0840 C.2       1 <0>         0.0265
     16 C12         1.2341   -0.6975   -0.0275 C.ar      1 <0>        -0.0607
     17 C13         0.3529   -0.0365    0.8372 C.ar      1 <0>        -0.0730
     18 C14         0.3421    1.3399    0.8883 C.ar      1 <0>        -0.1293
     19 C15         1.2031    2.0752    0.0843 C.ar      1 <0>         0.0664
     20 C16         2.0836    1.4247   -0.7795 C.ar      1 <0>         0.0564
     21 C17         2.1018    0.0453   -0.8378 C.ar      1 <0>        -0.1828
     22 O3          2.9248    2.1493   -1.5649 O.3       1 <0>        -0.2005
     23 C18         3.7999    1.4179   -2.4258 C.3       1 <0>        -0.0649
     24 O4          1.1875    3.4323    0.1394 O.3       1 <0>        -0.2760
     25 S1         -0.1786   -4.6213    0.1956 S.3       1 <0>         0.1719
     26 H1         -2.1959   -7.1811    1.7052 H         1 <0>         0.0946
     27 H2         -3.0075   -7.7105    0.2122 H         1 <0>         0.1069
     28 H3         -1.3428   -7.0841    0.1461 H         1 <0>         0.1006
     29 H4         -4.7033   -7.4975    0.4475 H         1 <0>         0.1312
     30 H5         -7.1317   -7.1072    0.3693 H         1 <0>         0.1427
     31 H6         -6.4516   -2.8909    0.2215 H         1 <0>         0.1506
     32 H7         -4.0230   -3.2781    0.3090 H         1 <0>         0.2178
     33 H8         -8.6454   -4.7335   -0.6562 H         1 <0>         0.2269
     34 H9          2.1813   -2.6903   -0.2248 H         1 <0>         0.1420
     35 H10        -0.3181   -0.6057    1.4635 H         1 <0>         0.1543
     36 H11        -0.3410    1.8487    1.5523 H         1 <0>         0.1501
     37 H12         2.7832   -0.4595   -1.5067 H         1 <0>         0.1374
     38 H13         4.4419    0.7716   -1.8273 H         1 <0>         0.0626
     39 H14         3.2101    0.8096   -3.1116 H         1 <0>         0.0696
     40 H15         4.4152    2.1144   -2.9953 H         1 <0>         0.1096
     41 H16         1.7944    3.8064    0.7928 H         1 <0>         0.2253
@<TRIPOS>BOND
     1    1    2 1
     2    1   26 1
     3    1   27 1
     4    1   28 1
     5    2    3 1
     6    2   10 1
     7    3    8 ar
     8    3    4 ar
     9    4    5 ar
    10    4   29 1
    11    5    6 ar
    12    5   30 1
    13    6    7 ar
    14    6    9 1
    15    7    8 ar
    16    7   31 1
    17    8   32 1
    18    9   33 1
    19   10   25 1
    20   10   11 2
    21   11   12 1
    22   12   13 2
    23   12   14 1
    24   14   15 2
    25   14   25 1
    26   15   16 1
    27   15   34 1
    28   16   21 ar
    29   16   17 ar
    30   17   18 ar
    31   17   35 1
    32   18   19 ar
    33   18   36 1
    34   19   20 ar
    35   19   24 1
    36   20   21 ar
    37   20   22 1
    38   21   37 1
    39   22   23 1
    40   23   38 1
    41   23   39 1
    42   23   40 1
    43   24   41 1
@<TRIPOS>MOLECULE
ZINC03850674
   40    42     0     0     0
SMALL
USER_CHARGES

@<TRIPOS>ATOM
      1 C1          2.2275    5.2997    0.0093 C.3       1 <0>        -0.0646
      2 O1          2.3224    3.8739    0.0007 O.3       1 <0>        -0.1945
      3 C2          1.1544    3.1773    0.0081 C.ar      1 <0>         0.0786
      4 C3         -0.0553    3.8545    0.0238 C.ar      1 <0>        -0.1945
      5 C4         -1.2429    3.1512    0.0319 C.ar      1 <0>        -0.1144
      6 C5         -1.2282    1.7575    0.0174 C.ar      1 <0>        -0.0231
      7 C6         -0.0126    1.0758    0.0080 C.ar      1 <0>        -0.1524
      8 C7          1.1753    1.7851    0.0004 C.ar      1 <0>         0.0652
      9 O2          2.3630    1.1228   -0.0141 O.3       1 <0>        -0.1981
     10 C8          2.3094   -0.3052   -0.0208 C.3       1 <0>        -0.0661
     11 C9         -2.5041    1.0010    0.0193 C.2       1 <0>         0.0257
     12 C10        -3.6994    1.6644    0.0338 C.2       1 <0>        -0.3536
     13 S1         -4.8420    0.2890    0.0271 S.3       1 <0>         0.2561
     14 C11        -3.6204   -1.0157    0.0144 C.2       1 <0>        -0.0261
     15 N1         -2.4959   -0.3233    0.0125 N.2       1 <0>        -0.2320
     16 N2         -3.8046   -2.3908    0.0087 N.pl3     1 <0>        -0.2059
     17 C12        -5.0671   -2.9104    0.0121 C.2       1 <0>         0.1027
     18 C13        -5.2480   -4.2605    0.0064 C.2       1 <0>        -0.2824
     19 C14        -6.5373   -4.9969    0.0150 C.2       1 <0>         0.1196
     20 C15        -7.7641   -4.4688    0.0298 C.2       1 <0>        -0.3367
     21 N3         -6.2070   -6.3530    0.0006 N.pl3     1 <0>        -0.2914
     22 H1         -6.8449   -7.0837    0.0001 H         1 <0>         0.2743
     23 N4         -4.8193   -6.4971   -0.0060 N.am      1 <0>        -0.2691
     24 H2         -4.3563   -7.3495   -0.0118 H         1 <0>         0.2676
     25 C16        -4.2081   -5.3000   -0.0029 C.2       1 <0>         0.3640
     26 O3         -3.0059   -5.1100   -0.0066 O.2       1 <0>        -0.3830
     27 H3          3.2287    5.7305    0.0021 H         1 <0>         0.1094
     28 H4          1.6822    5.6329   -0.8737 H         1 <0>         0.0657
     29 H5          1.6992    5.6233    0.9062 H         1 <0>         0.0657
     30 H6         -0.0684    4.9344    0.0302 H         1 <0>         0.1405
     31 H7         -2.1840    3.6810    0.0441 H         1 <0>         0.1293
     32 H8          0.0021   -0.0041    0.0020 H         1 <0>         0.1644
     33 H9          1.7906   -0.6535    0.8723 H         1 <0>         0.0701
     34 H10         1.7740   -0.6445   -0.9075 H         1 <0>         0.0701
     35 H11         3.3226   -0.7068   -0.0323 H         1 <0>         0.1080
     36 H12        -3.8984    2.7259    0.0451 H         1 <0>         0.2010
     37 H13        -3.0364   -2.9830    0.0022 H         1 <0>         0.2914
     38 H14        -5.9224   -2.2510    0.0193 H         1 <0>         0.1675
     39 H15        -7.8903   -3.3963    0.0369 H         1 <0>         0.1293
     40 H16        -8.6299   -5.1145    0.0347 H         1 <0>         0.1217
@<TRIPOS>BOND
     1    1    2 1
     2    1   27 1
     3    1   28 1
     4    1   29 1
     5    2    3 1
     6    3    8 ar
     7    3    4 ar
     8    4    5 ar
     9    4   30 1
    10    5    6 ar
    11    5   31 1
    12    6    7 ar
    13    6   11 1
    14    7    8 ar
    15    7   32 1
    16    8    9 1
    17    9   10 1
    18   10   33 1
    19   10   34 1
    20   10   35 1
    21   11   15 1
    22   11   12 2
    23   12   13 1
    24   12   36 1
    25   13   14 1
    26   14   15 2
    27   14   16 1
    28   16   17 1
    29   16   37 1
    30   17   18 2
    31   17   38 1
    32   18   25 1
    33   18   19 1
    34   19   20 2
    35   19   21 1
    36   20   39 1
    37   20   40 1
    38   21   22 1
    39   21   23 1
    40   23   24 1
    41   23   25 am
    42   25   26 2
@<TRIPOS>MOLECULE
ZINC03851148
   44    45     0     0     0
SMALL
USER_CHARGES

@<TRIPOS>ATOM
      1 C1          3.7498    1.1685   -5.8067 C.3       1 <0>        -0.2039
      2 C2          4.2061    1.5853   -4.4071 C.3       1 <0>        -0.0802
      3 C3          4.5416    3.0781   -4.4036 C.3       1 <0>        -0.2033
      4 C4          3.1017    1.3164   -3.4178 C.ar      1 <0>        -0.0499
      5 C5          3.3200    0.4495   -2.3612 C.ar      1 <0>        -0.1344
      6 C6          2.3143    0.1979   -1.4520 C.ar      1 <0>        -0.1004
      7 C7          1.0714    0.8216   -1.5994 C.ar      1 <0>        -0.0783
      8 C8          0.8569    1.6920   -2.6727 C.ar      1 <0>        -0.0591
      9 C9          1.8742    1.9371   -3.5707 C.ar      1 <0>        -0.1265
     10 C10        -0.0076    0.5585   -0.6333 C.2       1 <0>        -0.0086
     11 C11        -0.7190    1.5832   -0.1216 C.2       1 <0>        -0.2560
     12 C12        -0.2469    2.9585   -0.2908 C.2       1 <0>         0.3356
     13 O1          0.8415    3.1709   -0.7922 O.2       1 <0>        -0.3383
     14 N1         -1.0176    3.9894    0.1087 N.am      1 <0>        -0.3285
     15 C13        -0.5176    5.2944    0.0640 C.ar      1 <0>         0.1252
     16 C14         0.8328    5.5304    0.2873 C.ar      1 <0>        -0.1555
     17 C15         1.3245    6.8199    0.2363 C.ar      1 <0>        -0.0085
     18 C16         0.4719    7.8768   -0.0249 C.ar      1 <0>        -0.7850
     19 C17        -0.8742    7.6460   -0.2416 C.ar      1 <0>        -0.0078
     20 C18        -1.3713    6.3582   -0.1981 C.ar      1 <0>        -0.1926
     21 S1          1.1022    9.5212   -0.0824 S.o2      1 <0>         2.7635
     22 O2          2.4862    9.4153   -0.3866 O.2       1 <0>        -0.9173
     23 O3          0.2015   10.2736   -0.8837 O.2       1 <0>        -0.9203
     24 N2          1.0005   10.1385    1.4509 N.pl3     1 <0>        -0.9320
     25 H1          2.8648    1.7404   -6.0857 H         1 <0>         0.0759
     26 H2          4.5486    1.3631   -6.5223 H         1 <0>         0.0741
     27 H3          3.5108    0.1050   -5.8092 H         1 <0>         0.0758
     28 H4          5.0911    1.0134   -4.1281 H         1 <0>         0.0924
     29 H5          4.8667    3.3751   -3.4065 H         1 <0>         0.0819
     30 H6          5.3405    3.2727   -5.1192 H         1 <0>         0.0724
     31 H7          3.6566    3.6500   -4.6826 H         1 <0>         0.0785
     32 H8          4.2804   -0.0314   -2.2487 H         1 <0>         0.1295
     33 H9          2.4859   -0.4794   -0.6284 H         1 <0>         0.1264
     34 H10        -0.1018    2.1737   -2.7959 H         1 <0>         0.1278
     35 H11         1.7112    2.6118   -4.3982 H         1 <0>         0.1337
     36 H12        -0.2323   -0.4557   -0.3377 H         1 <0>         0.1384
     37 H13        -1.6371    1.3893    0.4131 H         1 <0>         0.1323
     38 H14        -1.9191    3.8261    0.4272 H         1 <0>         0.2355
     39 H15         1.4984    4.7059    0.4961 H         1 <0>         0.1693
     40 H16         2.3754    7.0036    0.4047 H         1 <0>         0.1567
     41 H17        -1.5375    8.4736   -0.4454 H         1 <0>         0.1534
     42 H18        -2.4226    6.1786   -0.3681 H         1 <0>         0.1365
     43 H19         0.6401    9.5955    2.1693 H         1 <0>         0.2288
     44 H20         1.3012   11.0430    1.6305 H         1 <0>         0.2425
@<TRIPOS>BOND
     1    1    2 1
     2    1   25 1
     3    1   26 1
     4    1   27 1
     5    2    3 1
     6    2    4 1
     7    2   28 1
     8    3   29 1
     9    3   30 1
    10    3   31 1
    11    4    9 ar
    12    4    5 ar
    13    5    6 ar
    14    5   32 1
    15    6    7 ar
    16    6   33 1
    17    7    8 ar
    18    7   10 1
    19    8    9 ar
    20    8   34 1
    21    9   35 1
    22   10   11 2
    23   10   36 1
    24   11   12 1
    25   11   37 1
    26   12   13 2
    27   12   14 am
    28   14   15 1
    29   14   38 1
    30   15   20 ar
    31   15   16 ar
    32   16   17 ar
    33   16   39 1
    34   17   18 ar
    35   17   40 1
    36   18   19 ar
    37   18   21 1
    38   19   20 ar
    39   19   41 1
    40   20   42 1
    41   21   22 2
    42   21   23 2
    43   21   24 1
    44   24   43 1
    45   24   44 1
@<TRIPOS>MOLECULE
ZINC03852061
   38    40     0     0     0
SMALL
USER_CHARGES

@<TRIPOS>ATOM
      1 C1          4.0569    1.2019   -2.2556 C.3       1 <0>        -0.0650
      2 O1          3.0637    2.0098   -1.6209 O.3       1 <0>        -0.2004
      3 C2          2.1298    1.3651   -0.8715 C.ar      1 <0>         0.0572
      4 C3          2.1703   -0.0098   -0.7516 C.ar      1 <0>        -0.1824
      5 C4          1.2069   -0.6702    0.0210 C.ar      1 <0>        -0.0608
      6 C5          0.2079    0.0682    0.6675 C.ar      1 <0>        -0.0737
      7 C6          0.1757    1.4394    0.5420 C.ar      1 <0>        -0.1292
      8 C7          1.1318    2.0930   -0.2244 C.ar      1 <0>         0.0663
      9 O2          1.0943    3.4455   -0.3445 O.3       1 <0>        -0.2759
     10 C8          1.2443   -2.1319    0.1531 C.2       1 <0>         0.0277
     11 C9          0.0871   -2.8408    0.1797 C.2       1 <0>        -0.3380
     12 C10        -1.3072   -2.3901   -0.0392 C.2       1 <0>         0.3200
     13 O3         -1.5760   -1.2258   -0.2888 O.2       1 <0>        -0.2763
     14 N1         -2.2391   -3.3131    0.0499 N.2       1 <0>        -0.3718
     15 C11        -1.9613   -4.5790    0.3196 C.2       1 <0>         0.1092
     16 S1         -0.1825   -4.5829    0.4809 S.3       1 <0>         0.1754
     17 N2         -2.8286   -5.6331    0.4404 N.pl3     1 <0>        -0.2042
     18 C12        -4.2102   -5.4120    0.3905 C.ar      1 <0>         0.0211
     19 C13        -4.7057   -4.1177    0.3230 C.ar      1 <0>        -0.1400
     20 C14        -6.0698   -3.9022    0.2734 C.ar      1 <0>        -0.1112
     21 C15        -6.9436   -4.9738    0.2903 C.ar      1 <0>        -0.1305
     22 C16        -6.4574   -6.2663    0.3574 C.ar      1 <0>        -0.1327
     23 C17        -5.0912   -6.4913    0.4026 C.ar      1 <0>         0.0320
     24 O4         -4.6114   -7.7622    0.4635 O.3       1 <0>        -0.2928
     25 H1          3.5738    0.4972   -2.9324 H         1 <0>         0.0700
     26 H2          4.7375    1.8393   -2.8200 H         1 <0>         0.1099
     27 H3          4.6169    0.6529   -1.4986 H         1 <0>         0.0627
     28 H4          2.9427   -0.5745   -1.2526 H         1 <0>         0.1379
     29 H5         -0.5371   -0.4374    1.2640 H         1 <0>         0.1529
     30 H6         -0.5977    2.0075    1.0374 H         1 <0>         0.1497
     31 H7          1.6010    3.9146    0.3325 H         1 <0>         0.2252
     32 H8          2.1926   -2.6432    0.2292 H         1 <0>         0.1429
     33 H9         -2.4853   -6.5323    0.5605 H         1 <0>         0.2666
     34 H10        -4.0255   -3.2790    0.3097 H         1 <0>         0.2136
     35 H11        -6.4543   -2.8944    0.2209 H         1 <0>         0.1425
     36 H12        -8.0089   -4.8006    0.2506 H         1 <0>         0.1355
     37 H13        -7.1427   -7.1009    0.3701 H         1 <0>         0.1443
     38 H14        -4.4997   -8.0978    1.3635 H         1 <0>         0.2223
@<TRIPOS>BOND
     1    1    2 1
     2    1   25 1
     3    1   26 1
     4    1   27 1
     5    2    3 1
     6    3    8 ar
     7    3    4 ar
     8    4    5 ar
     9    4   28 1
    10    5    6 ar
    11    5   10 1
    12    6    7 ar
    13    6   29 1
    14    7    8 ar
    15    7   30 1
    16    8    9 1
    17    9   31 1
    18   10   11 2
    19   10   32 1
    20   11   16 1
    21   11   12 1
    22   12   13 2
    23   12   14 1
    24   14   15 2
    25   15   16 1
    26   15   17 1
    27   17   18 1
    28   17   33 1
    29   18   23 ar
    30   18   19 ar
    31   19   20 ar
    32   19   34 1
    33   20   21 ar
    34   20   35 1
    35   21   22 ar
    36   21   36 1
    37   22   23 ar
    38   22   37 1
    39   23   24 1
    40   24   38 1
@<TRIPOS>MOLECULE
ZINC03852063
   38    40     0     0     0
SMALL
USER_CHARGES

@<TRIPOS>ATOM
      1 C1         -2.2789   -0.2729    0.5546 C.3       1 <0>        -0.0670
      2 O1         -2.2942    1.0998    0.9513 O.3       1 <0>        -0.1979
      3 C2         -1.1025    1.7550    0.9540 C.ar      1 <0>         0.0702
      4 C3          0.0506    1.0917    0.5841 C.ar      1 <0>        -0.1838
      5 C4          1.2751    1.7712    0.5831 C.ar      1 <0>        -0.0512
      6 C5          1.3235    3.1184    0.9625 C.ar      1 <0>        -0.1299
      7 C6          0.1688    3.7702    1.3349 C.ar      1 <0>        -0.1203
      8 C7         -1.0449    3.0953    1.3350 C.ar      1 <0>         0.0614
      9 O2         -2.1803    3.7440    1.7025 O.3       1 <0>        -0.2748
     10 C8          2.5041    1.0736    0.1851 C.2       1 <0>         0.0140
     11 C9          3.6561    1.7712    0.0163 C.2       1 <0>        -0.3269
     12 C10         5.0382    1.2831   -0.2001 C.2       1 <0>         0.3257
     13 O3          5.2996    0.0918   -0.2524 O.2       1 <0>        -0.2821
     14 N1          5.9675    2.2034   -0.3324 N.2       1 <0>        -0.3744
     15 C11         5.6976    3.4983   -0.2774 C.2       1 <0>         0.0873
     16 S1          3.9314    3.5380   -0.0150 S.3       1 <0>         0.1922
     17 N2          6.5636    4.5535   -0.3979 N.pl3     1 <0>        -0.2020
     18 C12         7.9232    4.3196   -0.6366 C.ar      1 <0>         0.0197
     19 C13         8.4067    3.0201   -0.6896 C.ar      1 <0>        -0.1431
     20 C14         9.7483    2.7917   -0.9296 C.ar      1 <0>        -0.1119
     21 C15        10.6134    3.8558   -1.1075 C.ar      1 <0>        -0.1313
     22 C16        10.1398    5.1535   -1.0514 C.ar      1 <0>        -0.1331
     23 C17         8.7954    5.3911   -0.8160 C.ar      1 <0>         0.0307
     24 O4          8.3284    6.6670   -0.7596 O.3       1 <0>        -0.2941
     25 H1         -3.2913   -0.6746    0.5968 H         1 <0>         0.1136
     26 H2         -1.8985   -0.3527   -0.4637 H         1 <0>         0.0674
     27 H3         -1.6352   -0.8386    1.2283 H         1 <0>         0.0712
     28 H4          0.0076    0.0528    0.2920 H         1 <0>         0.1452
     29 H5          2.2660    3.6459    0.9634 H         1 <0>         0.1503
     30 H6          0.2072    4.8091    1.6273 H         1 <0>         0.1494
     31 H7         -2.6431    4.1728    0.9697 H         1 <0>         0.2291
     32 H8          2.4915    0.0054    0.0265 H         1 <0>         0.1682
     33 H9          6.2346    5.4625   -0.3178 H         1 <0>         0.2658
     34 H10         7.7341    2.1872   -0.5469 H         1 <0>         0.2189
     35 H11        10.1229    1.7798   -0.9743 H         1 <0>         0.1420
     36 H12        11.6619    3.6726   -1.2905 H         1 <0>         0.1349
     37 H13        10.8182    5.9823   -1.1908 H         1 <0>         0.1437
     38 H14         8.3491    7.0546    0.1260 H         1 <0>         0.2227
@<TRIPOS>BOND
     1    1    2 1
     2    1   25 1
     3    1   26 1
     4    1   27 1
     5    2    3 1
     6    3    8 ar
     7    3    4 ar
     8    4    5 ar
     9    4   28 1
    10    5    6 ar
    11    5   10 1
    12    6    7 ar
    13    6   29 1
    14    7    8 ar
    15    7   30 1
    16    8    9 1
    17    9   31 1
    18   10   11 2
    19   10   32 1
    20   11   16 1
    21   11   12 1
    22   12   13 2
    23   12   14 1
    24   14   15 2
    25   15   16 1
    26   15   17 1
    27   17   18 1
    28   17   33 1
    29   18   23 ar
    30   18   19 ar
    31   19   20 ar
    32   19   34 1
    33   20   21 ar
    34   20   35 1
    35   21   22 ar
    36   21   36 1
    37   22   23 ar
    38   22   37 1
    39   23   24 1
    40   24   38 1
@<TRIPOS>MOLECULE
ZINC03852151
   40    42     0     0     0
SMALL
USER_CHARGES

@<TRIPOS>ATOM
      1 C1          1.1076    5.0812   -1.3492 C.3       1 <0>        -0.0626
      2 O1          0.2263    5.6446   -0.3757 O.3       1 <0>        -0.2061
      3 C2          0.1440    5.0095    0.8230 C.ar      1 <0>         0.1129
      4 C3          0.8924    3.8636    1.0546 C.ar      1 <0>        -0.2355
      5 C4          0.8132    3.2192    2.2743 C.ar      1 <0>        -0.0736
      6 C5         -0.0183    3.7074    3.2638 C.ar      1 <0>        -0.1987
      7 C6         -0.7736    4.8507    3.0358 C.ar      1 <0>         0.0946
      8 C7         -0.6916    5.5022    1.8127 C.ar      1 <0>        -0.1587
      9 N1         -1.6151    5.3450    4.0371 N.am      1 <0>        -0.3206
     10 C8         -1.7776    6.6747    4.1852 C.2       1 <0>         0.4034
     11 O2         -1.2596    7.4433    3.3950 O.2       1 <0>        -0.3532
     12 C9         -2.5508    7.1784    5.2599 C.2       1 <0>        -0.4219
     13 C10        -2.9490    8.4913    5.5363 C.2       1 <0>         0.1138
     14 N2         -3.6742    8.6868    6.6171 N.2       1 <0>        -0.2805
     15 C11        -4.0152    7.6874    7.4121 C.2       1 <0>         0.0185
     16 S1         -3.2951    6.3126    6.6345 S.3       1 <0>         0.3049
     17 N3         -4.7631    7.7264    8.5693 N.pl3     1 <0>        -0.3442
     18 C12        -2.5693    9.6149    4.6491 C.ar      1 <0>         0.0137
     19 C13        -2.0902   10.8062    5.1938 C.ar      1 <0>        -0.0978
     20 C14        -1.7331   11.8474    4.3619 C.ar      1 <0>        -0.0856
     21 C15        -1.8594   11.7153    2.9905 C.ar      1 <0>        -0.0988
     22 C16        -2.3393   10.5383    2.4445 C.ar      1 <0>        -0.0771
     23 C17        -2.6948    9.4880    3.2657 C.ar      1 <0>        -0.0665
     24 N4         -1.4799   12.8383    2.1038 N.pl3     1 <0>         0.5480
     25 O3         -1.5904   12.7248    0.8962 O.2       1 <0>        -0.3569
     26 O4         -1.0570   13.8756    2.5819 O.3       1 <0>        -0.3610
     27 H1          1.0786    5.6834   -2.2573 H         1 <0>         0.1096
     28 H2          0.7929    4.0630   -1.5782 H         1 <0>         0.0661
     29 H3          2.1236    5.0673   -0.9547 H         1 <0>         0.0693
     30 H4          1.5405    3.4774    0.2817 H         1 <0>         0.1351
     31 H5          1.3995    2.3300    2.4531 H         1 <0>         0.1316
     32 H6         -0.0812    3.1997    4.2149 H         1 <0>         0.1292
     33 H7         -1.2775    6.3914    1.6329 H         1 <0>         0.1735
     34 H8         -2.0820    4.7309    4.6251 H         1 <0>         0.2342
     35 H9         -5.1125    8.5715    8.8927 H         1 <0>         0.2507
     36 H10        -4.9399    6.9087    9.0603 H         1 <0>         0.2463
     37 H11        -1.9954   10.9120    6.2645 H         1 <0>         0.1545
     38 H12        -1.3581   12.7689    4.7823 H         1 <0>         0.1639
     39 H13        -2.4357   10.4412    1.3732 H         1 <0>         0.1675
     40 H14        -3.0696    8.5698    2.8383 H         1 <0>         0.1583
@<TRIPOS>BOND
     1    1    2 1
     2    1   27 1
     3    1   28 1
     4    1   29 1
     5    2    3 1
     6    3    8 ar
     7    3    4 ar
     8    4    5 ar
     9    4   30 1
    10    5    6 ar
    11    5   31 1
    12    6    7 ar
    13    6   32 1
    14    7    8 ar
    15    7    9 1
    16    8   33 1
    17    9   10 am
    18    9   34 1
    19   10   11 2
    20   10   12 1
    21   12   16 1
    22   12   13 2
    23   13   14 1
    24   13   18 1
    25   14   15 2
    26   15   16 1
    27   15   17 1
    28   17   35 1
    29   17   36 1
    30   18   23 ar
    31   18   19 ar
    32   19   20 ar
    33   19   37 1
    34   20   21 ar
    35   20   38 1
    36   21   22 ar
    37   21   24 1
    38   22   23 ar
    39   22   39 1
    40   23   40 1
    41   24   25 2
    42   24   26 1
@<TRIPOS>MOLECULE
ZINC03852400
   39    41     0     0     0
SMALL
USER_CHARGES

@<TRIPOS>ATOM
      1 C1         -8.7324    7.4279    0.4216 C.3       1 <0>        -0.1380
      2 C2         -8.7588    5.9212    0.4131 C.2       1 <0>        -0.0236
      3 C3         -9.8702    5.1556    0.4901 C.2       1 <0>        -0.2258
      4 C4         -9.4554    3.8161    0.4500 C.2       1 <0>        -0.1571
      5 C5         -8.0782    3.8343    0.3481 C.2       1 <0>        -0.0644
      6 O1         -7.6833    5.1247    0.3337 O.3       1 <0>        -0.0394
      7 C6         -7.2331    2.7036    0.2775 C.2       1 <0>         0.0381
      8 C7         -5.8830    2.8667    0.1785 C.2       1 <0>        -0.3288
      9 C8         -4.8108    1.8531    0.0920 C.2       1 <0>         0.3245
     10 O2         -5.0545    0.6561    0.1014 O.2       1 <0>        -0.2794
     11 N1         -3.5802    2.3090    0.0047 N.2       1 <0>        -0.3644
     12 C9         -3.3023    3.6029   -0.0062 C.2       1 <0>         0.0976
     13 S1         -4.9112    4.3672    0.1260 S.3       1 <0>         0.1991
     14 N2         -2.0754    4.2100   -0.0921 N.pl3     1 <0>        -0.2227
     15 C10        -0.9095    3.4358   -0.0852 C.ar      1 <0>         0.0235
     16 C11        -0.9072    2.1784   -0.6755 C.ar      1 <0>        -0.0975
     17 C12         0.2412    1.4126   -0.6636 C.ar      1 <0>        -0.1080
     18 C13         1.3971    1.9034   -0.0707 C.ar      1 <0>         0.0549
     19 C14         1.3964    3.1627    0.5149 C.ar      1 <0>        -0.1487
     20 C15         0.2467    3.9266    0.5078 C.ar      1 <0>        -0.1366
     21 N3          2.5640    1.1285   -0.0638 N.am      1 <0>        -0.3313
     22 C16         2.4826   -0.2112    0.0592 C.2       1 <0>         0.2989
     23 O3          1.3976   -0.7525    0.0899 O.2       1 <0>        -0.3458
     24 C17         3.7396   -1.0365    0.1585 C.3       1 <0>        -0.2380
     25 H1         -8.6500    7.7841    1.4485 H         1 <0>         0.0979
     26 H2         -7.8766    7.7796   -0.1547 H         1 <0>         0.0955
     27 H3         -9.6514    7.8099   -0.0229 H         1 <0>         0.1001
     28 H4        -10.8876    5.5093    0.5684 H         1 <0>         0.1598
     29 H5        -10.0887    2.9422    0.4909 H         1 <0>         0.1622
     30 H6         -7.6567    1.7104    0.3020 H         1 <0>         0.1835
     31 H7         -2.0157    5.1760   -0.1577 H         1 <0>         0.2575
     32 H8         -1.8049    1.7985   -1.1406 H         1 <0>         0.1792
     33 H9          0.2420    0.4334   -1.1193 H         1 <0>         0.1744
     34 H10         2.2955    3.5444    0.9757 H         1 <0>         0.1327
     35 H11         0.2463    4.9060    0.9629 H         1 <0>         0.1309
     36 H12         3.4307    1.5560   -0.1475 H         1 <0>         0.2307
     37 H13         4.0242   -1.1405    1.2056 H         1 <0>         0.1083
     38 H14         3.5612   -2.0231   -0.2692 H         1 <0>         0.1186
     39 H15         4.5425   -0.5430   -0.3890 H         1 <0>         0.0818
@<TRIPOS>BOND
     1    1    2 1
     2    1   25 1
     3    1   26 1
     4    1   27 1
     5    2    6 1
     6    2    3 2
     7    3    4 1
     8    3   28 1
     9    4    5 2
    10    4   29 1
    11    5    6 1
    12    5    7 1
    13    7    8 2
    14    7   30 1
    15    8   13 1
    16    8    9 1
    17    9   10 2
    18    9   11 1
    19   11   12 2
    20   12   13 1
    21   12   14 1
    22   14   15 1
    23   14   31 1
    24   15   20 ar
    25   15   16 ar
    26   16   17 ar
    27   16   32 1
    28   17   18 ar
    29   17   33 1
    30   18   19 ar
    31   18   21 1
    32   19   20 ar
    33   19   34 1
    34   20   35 1
    35   21   22 am
    36   21   36 1
    37   22   23 2
    38   22   24 1
    39   24   37 1
    40   24   38 1
    41   24   39 1
@<TRIPOS>MOLECULE
ZINC03852427
   40    41     0     0     0
SMALL
USER_CHARGES

@<TRIPOS>ATOM
      1 C1          1.3283   -9.0766   -1.3262 C.3       1 <0>        -0.0534
      2 N1          1.5718   -8.3801   -0.0605 N.pl3     1 <0>        -0.3385
      3 C2          1.5717   -9.1282    1.1991 C.3       1 <0>        -0.0488
      4 C3          1.8041   -7.0028   -0.0547 C.ar      1 <0>         0.1371
      5 C4          1.9226   -6.3118   -1.2540 C.ar      1 <0>        -0.2152
      6 C5          2.1519   -4.9500   -1.2446 C.ar      1 <0>        -0.0614
      7 C6          2.2634   -4.2742   -0.0433 C.ar      1 <0>        -0.1769
      8 C7          2.1516   -4.9600    1.1523 C.ar      1 <0>        -0.0624
      9 C8          1.9167   -6.3209    1.1502 C.ar      1 <0>        -0.2133
     10 C9          2.5135   -2.7881   -0.0371 C.3       1 <0>         0.0429
     11 N2          1.2326   -2.0773   -0.0376 N.pl3     1 <0>        -0.3618
     12 C10         1.2088   -0.6808   -0.0323 C.ar      1 <0>         0.1703
     13 C11        -0.0050   -0.0052   -0.0328 C.ar      1 <0>        -0.2335
     14 C12        -0.0248    1.3757   -0.0281 C.ar      1 <0>         0.0183
     15 C13         1.1618    2.0858   -0.0229 C.ar      1 <0>        -0.8239
     16 C14         2.3718    1.4164   -0.0225 C.ar      1 <0>         0.0189
     17 C15         2.3989    0.0357   -0.0272 C.ar      1 <0>        -0.2357
     18 S1          1.1318    3.8475   -0.0174 S.o2      1 <0>         2.7670
     19 O1          2.3714    4.2765   -0.5638 O.2       1 <0>        -0.9252
     20 O2         -0.1189    4.2342   -0.5702 O.2       1 <0>        -0.9251
     21 N3          1.1195    4.3321    1.5661 N.pl3     1 <0>        -0.9325
     22 H1          1.4551   -8.3797   -2.1546 H         1 <0>         0.0934
     23 H2          2.0368   -9.8983   -1.4309 H         1 <0>         0.0716
     24 H3          0.3118   -9.4700   -1.3346 H         1 <0>         0.0701
     25 H4          0.5632   -9.1441    1.6122 H         1 <0>         0.0669
     26 H5          1.9051  -10.1496    1.0151 H         1 <0>         0.0798
     27 H6          2.2469   -8.6477    1.9071 H         1 <0>         0.0850
     28 H7          1.8360   -6.8391   -2.1925 H         1 <0>         0.1365
     29 H8          2.2438   -4.4121   -2.1766 H         1 <0>         0.1332
     30 H9          2.2439   -4.4300    2.0888 H         1 <0>         0.1318
     31 H10         1.8251   -6.8551    2.0844 H         1 <0>         0.1352
     32 H11         3.0828   -2.5118   -0.9246 H         1 <0>         0.0865
     33 H12         3.0784   -2.5185    0.8553 H         1 <0>         0.0841
     34 H13         0.4009   -2.5765   -0.0415 H         1 <0>         0.2368
     35 H14        -0.9320   -0.5592   -0.0365 H         1 <0>         0.1356
     36 H15        -0.9681    1.9016   -0.0330 H         1 <0>         0.1501
     37 H16         3.2967    1.9740   -0.0181 H         1 <0>         0.1497
     38 H17         3.3443   -0.4865   -0.0264 H         1 <0>         0.1381
     39 H18         1.1290    3.6709    2.2757 H         1 <0>         0.2287
     40 H19         1.1029    5.2772    1.7839 H         1 <0>         0.2401
@<TRIPOS>BOND
     1    1    2 1
     2    1   22 1
     3    1   23 1
     4    1   24 1
     5    2    3 1
     6    2    4 1
     7    3   25 1
     8    3   26 1
     9    3   27 1
    10    4    9 ar
    11    4    5 ar
    12    5    6 ar
    13    5   28 1
    14    6    7 ar
    15    6   29 1
    16    7    8 ar
    17    7   10 1
    18    8    9 ar
    19    8   30 1
    20    9   31 1
    21   10   11 1
    22   10   32 1
    23   10   33 1
    24   11   12 1
    25   11   34 1
    26   12   17 ar
    27   12   13 ar
    28   13   14 ar
    29   13   35 1
    30   14   15 ar
    31   14   36 1
    32   15   16 ar
    33   15   18 1
    34   16   17 ar
    35   16   37 1
    36   17   38 1
    37   18   19 2
    38   18   20 2
    39   18   21 1
    40   21   39 1
    41   21   40 1
@<TRIPOS>MOLECULE
ZINC03852768
   37    38     0     0     0
SMALL
USER_CHARGES

@<TRIPOS>ATOM
      1 C1          1.6410    4.3997   -1.1745 C.3       1 <0>        -0.2380
      2 C2          1.9391    3.8858    0.2105 C.2       1 <0>         0.3237
      3 O1          2.0414    4.6624    1.1364 O.2       1 <0>        -0.3263
      4 N1          2.0919    2.5633    0.4201 N.am      1 <0>        -0.8300
      5 S1          2.4194    1.9987    1.9421 S.o2      1 <0>         2.7494
      6 O2          2.4960    0.5832    1.8424 O.2       1 <0>        -0.9166
      7 O3          3.4899    2.7859    2.4457 O.2       1 <0>        -0.8838
      8 C3          1.0154    2.3577    2.9443 C.ar      1 <0>        -0.7855
      9 C4          0.9465    3.5558    3.6315 C.ar      1 <0>         0.0122
     10 C5         -0.1551    3.8427    4.4134 C.ar      1 <0>        -0.1626
     11 C6         -1.1894    2.9215    4.5182 C.ar      1 <0>         0.1248
     12 C7         -1.1145    1.7167    3.8311 C.ar      1 <0>        -0.1993
     13 C8         -0.0126    1.4384    3.0464 C.ar      1 <0>        -0.0117
     14 N2         -2.3033    3.2062    5.3138 N.am      1 <0>        -0.3228
     15 C9         -2.6784    4.4850    5.5153 C.2       1 <0>         0.3344
     16 O4         -2.0979    5.3878    4.9396 O.2       1 <0>        -0.3464
     17 C10        -3.7459    4.7785    6.3953 C.2       1 <0>        -0.2632
     18 C11        -4.2149    6.0478    6.4932 C.2       1 <0>         0.0411
     19 C12        -3.7940    7.0315    5.5661 C.2       1 <0>        -0.2996
     20 C13        -3.3795    8.3371    5.8016 C.2       1 <0>        -0.1273
     21 C14        -3.0185    9.0830    4.7077 C.2       1 <0>        -0.1944
     22 C15        -3.0912    8.5254    3.4702 C.2       1 <0>        -0.3410
     23 S2         -3.6646    6.9210    3.7902 S.3       1 <0>         0.4830
     24 H1          1.5863    3.5614   -1.8691 H         1 <0>         0.0823
     25 H2          0.6883    4.9292   -1.1684 H         1 <0>         0.1163
     26 H3          2.4328    5.0801   -1.4879 H         1 <0>         0.1194
     27 H4          2.0100    1.9422   -0.3204 H         1 <0>         0.2518
     28 H5          1.7531    4.2697    3.5531 H         1 <0>         0.1728
     29 H6         -0.2103    4.7804    4.9463 H         1 <0>         0.1774
     30 H7         -1.9171    0.9984    3.9101 H         1 <0>         0.1331
     31 H8          0.0462    0.5019    2.5117 H         1 <0>         0.1457
     32 H9         -2.8061    2.4834    5.7207 H         1 <0>         0.2346
     33 H10        -4.1879    3.9922    6.9893 H         1 <0>         0.1342
     34 H11        -4.9094    6.3078    7.2784 H         1 <0>         0.1441
     35 H12        -3.3404    8.7453    6.8007 H         1 <0>         0.1425
     36 H13        -2.6847   10.1031    4.8283 H         1 <0>         0.1405
     37 H14        -2.8504    8.9738    2.5177 H         1 <0>         0.1851
@<TRIPOS>BOND
     1    1    2 1
     2    1   24 1
     3    1   25 1
     4    1   26 1
     5    2    3 2
     6    2    4 am
     7    4    5 1
     8    4   27 1
     9    5    6 2
    10    5    7 2
    11    5    8 1
    12    8   13 ar
    13    8    9 ar
    14    9   10 ar
    15    9   28 1
    16   10   11 ar
    17   10   29 1
    18   11   12 ar
    19   11   14 1
    20   12   13 ar
    21   12   30 1
    22   13   31 1
    23   14   15 am
    24   14   32 1
    25   15   16 2
    26   15   17 1
    27   17   18 2
    28   17   33 1
    29   18   19 1
    30   18   34 1
    31   19   23 1
    32   19   20 2
    33   20   21 1
    34   20   35 1
    35   21   22 2
    36   21   36 1
    37   22   23 1
    38   22   37 1
@<TRIPOS>MOLECULE
ZINC03852795
   40    41     0     0     0
SMALL
USER_CHARGES

@<TRIPOS>ATOM
      1 C1         -3.0510    8.2500    2.2039 C.3       1 <0>        -0.1364
      2 C2         -3.2736    8.0203    3.6765 C.2       1 <0>        -0.0152
      3 C3         -3.0643    8.9311    4.6530 C.2       1 <0>        -0.2303
      4 C4         -3.3911    8.3161    5.8711 C.2       1 <0>        -0.1670
      5 C5         -3.7923    7.0316    5.5671 C.2       1 <0>        -0.0525
      6 O1         -3.7054    6.8783    4.2292 O.3       1 <0>        -0.0162
      7 C6         -4.2142    6.0479    6.4940 C.2       1 <0>         0.0208
      8 C7         -3.7948    4.7649    6.3593 C.2       1 <0>        -0.2494
      9 C8         -2.7693    4.4489    5.4370 C.2       1 <0>         0.3412
     10 O2         -2.1782    5.3404    4.8545 O.2       1 <0>        -0.3399
     11 N1         -2.4465    3.1614    5.2030 N.am      1 <0>        -0.3255
     12 C9         -1.3623    2.8516    4.3764 C.ar      1 <0>         0.1271
     13 C10        -1.3605    1.6715    3.6438 C.ar      1 <0>        -0.1983
     14 C11        -0.2882    1.3687    2.8279 C.ar      1 <0>        -0.0119
     15 C12         0.7830    2.2389    2.7399 C.ar      1 <0>        -0.7856
     16 C13         0.7868    3.4121    3.4720 C.ar      1 <0>         0.0120
     17 C14        -0.2848    3.7234    4.2857 C.ar      1 <0>        -0.1614
     18 S1          2.1494    1.8484    1.6982 S.o2      1 <0>         2.7495
     19 O3          2.1526    0.4357    1.5450 O.2       1 <0>        -0.9166
     20 O4          3.2669    2.5618    2.2097 O.2       1 <0>        -0.8840
     21 N2          1.8243    2.4857    0.2047 N.am      1 <0>        -0.8299
     22 C15         1.7349    3.8212    0.0468 C.2       1 <0>         0.3239
     23 O5          1.8925    4.5562    0.9986 O.2       1 <0>        -0.3267
     24 C16         1.4390    4.4012   -1.3123 C.3       1 <0>        -0.2380
     25 H1         -2.0273    7.9798    1.9446 H         1 <0>         0.1027
     26 H2         -3.7452    7.6351    1.6312 H         1 <0>         0.0900
     27 H3         -3.2194    9.3014    1.9706 H         1 <0>         0.0939
     28 H4         -2.7119    9.9433    4.5204 H         1 <0>         0.1551
     29 H5         -3.3392    8.7611    6.8538 H         1 <0>         0.1540
     30 H6         -4.8699    6.3190    7.3082 H         1 <0>         0.1504
     31 H7         -4.2436    3.9846    6.9561 H         1 <0>         0.1336
     32 H8         -2.9665    2.4498    5.6081 H         1 <0>         0.2350
     33 H9         -2.1969    0.9917    3.7118 H         1 <0>         0.1335
     34 H10        -0.2863    0.4515    2.2577 H         1 <0>         0.1456
     35 H11         1.6269    4.0874    3.4044 H         1 <0>         0.1724
     36 H12        -0.2833    4.6420    4.8537 H         1 <0>         0.1746
     37 H13         1.6983    1.8978   -0.5565 H         1 <0>         0.2518
     38 H14         1.3300    3.5935   -2.0361 H         1 <0>         0.0825
     39 H15         0.5145    4.9769   -1.2682 H         1 <0>         0.1160
     40 H16         2.2586    5.0526   -1.6156 H         1 <0>         0.1192
@<TRIPOS>BOND
     1    1    2 1
     2    1   25 1
     3    1   26 1
     4    1   27 1
     5    2    6 1
     6    2    3 2
     7    3    4 1
     8    3   28 1
     9    4    5 2
    10    4   29 1
    11    5    6 1
    12    5    7 1
    13    7    8 2
    14    7   30 1
    15    8    9 1
    16    8   31 1
    17    9   10 2
    18    9   11 am
    19   11   12 1
    20   11   32 1
    21   12   17 ar
    22   12   13 ar
    23   13   14 ar
    24   13   33 1
    25   14   15 ar
    26   14   34 1
    27   15   16 ar
    28   15   18 1
    29   16   17 ar
    30   16   35 1
    31   17   36 1
    32   18   19 2
    33   18   20 2
    34   18   21 1
    35   21   22 am
    36   21   37 1
    37   22   23 2
    38   22   24 1
    39   24   38 1
    40   24   39 1
    41   24   40 1
@<TRIPOS>MOLECULE
ZINC03852870
   43    45     0     0     0
SMALL
USER_CHARGES

@<TRIPOS>ATOM
      1 C1          2.1958    8.4166    0.0244 C.3       1 <0>        -0.1616
      2 C2          3.5072    7.6742    0.0084 C.2       1 <0>        -0.2304
      3 C3          3.5184    6.3544    0.0016 C.2       1 <0>        -0.0009
      4 N1          2.3213    5.6496    0.0093 N.pl3     1 <0>        -0.2711
      5 N2          2.3332    4.2487    0.0021 N.am      1 <0>        -0.2667
      6 C4          1.1718    3.5649    0.0095 C.2       1 <0>         0.3357
      7 O1          0.1141    4.1637    0.0224 O.2       1 <0>        -0.3592
      8 C5          1.1843    2.0865    0.0020 C.ar      1 <0>        -0.0783
      9 C6         -0.0166    1.3754    0.0096 C.ar      1 <0>        -0.0733
     10 C7          0.0021   -0.0041    0.0020 C.ar      1 <0>        -0.0774
     11 C8          1.2078   -0.6825   -0.0136 C.ar      1 <0>        -0.0907
     12 C9          2.4019    0.0164   -0.0212 C.ar      1 <0>        -0.0767
     13 C10         2.3972    1.3959   -0.0133 C.ar      1 <0>        -0.1186
     14 N3          1.2203   -2.1626   -0.0217 N.pl3     1 <0>         0.5451
     15 O2          0.1708   -2.7806   -0.0146 O.2       1 <0>        -0.3465
     16 O3          2.2802   -2.7626   -0.0354 O.3       1 <0>        -0.3502
     17 C11         4.8058    8.4388    0.0001 C.3       1 <0>        -0.0549
     18 C12         5.1626    8.8075   -1.4169 C.ar      1 <0>        -0.0646
     19 C13         5.9352    7.9509   -2.1788 C.ar      1 <0>        -0.1259
     20 C14         6.2604    8.2821   -3.4809 C.ar      1 <0>        -0.1091
     21 C15         5.8224    9.4801   -4.0217 C.ar      1 <0>        -0.0008
     22 C16         5.0486   10.3455   -3.2524 C.ar      1 <0>         0.0076
     23 C17         4.7214   10.0042   -1.9501 C.ar      1 <0>        -0.1089
     24 O4          4.7466   11.4448   -4.0031 O.3       1 <0>        -0.2079
     25 C18         5.6817   11.4315   -5.0978 C.3       1 <0>         0.1071
     26 O5          6.0052   10.0371   -5.2543 O.3       1 <0>        -0.2084
     27 H1          1.8892    8.5904    1.0559 H         1 <0>         0.0802
     28 H2          2.3132    9.3726   -0.4857 H         1 <0>         0.0853
     29 H3          1.4364    7.8236   -0.4853 H         1 <0>         0.0733
     30 H4          4.4582    5.8224   -0.0098 H         1 <0>         0.1378
     31 H5          1.4772    6.1275    0.0196 H         1 <0>         0.2836
     32 H6          3.1773    3.7709   -0.0082 H         1 <0>         0.2472
     33 H7         -0.9585    1.9038    0.0169 H         1 <0>         0.1762
     34 H8         -0.9265   -0.5556    0.0079 H         1 <0>         0.1735
     35 H9          3.3396   -0.5192   -0.0331 H         1 <0>         0.1696
     36 H10         3.3299    1.9403   -0.0190 H         1 <0>         0.1393
     37 H11         4.6973    9.3456    0.5952 H         1 <0>         0.0973
     38 H12         5.5954    7.8184    0.4239 H         1 <0>         0.0862
     39 H13         6.2818    7.0189   -1.7572 H         1 <0>         0.1331
     40 H14         6.8607    7.6091   -4.0752 H         1 <0>         0.1420
     41 H15         4.1211   10.6732   -1.3513 H         1 <0>         0.1441
     42 H16         6.5736   12.0057   -4.8468 H         1 <0>         0.0875
     43 H17         5.2191   11.8214   -6.0045 H         1 <0>         0.1302
@<TRIPOS>BOND
     1    1    2 1
     2    1   27 1
     3    1   28 1
     4    1   29 1
     5    2    3 2
     6    2   17 1
     7    3    4 1
     8    3   30 1
     9    4    5 1
    10    4   31 1
    11    5    6 am
    12    5   32 1
    13    6    7 2
    14    6    8 1
    15    8   13 ar
    16    8    9 ar
    17    9   10 ar
    18    9   33 1
    19   10   11 ar
    20   10   34 1
    21   11   12 ar
    22   11   14 1
    23   12   13 ar
    24   12   35 1
    25   13   36 1
    26   14   15 2
    27   14   16 1
    28   17   18 1
    29   17   37 1
    30   17   38 1
    31   18   23 ar
    32   18   19 ar
    33   19   20 ar
    34   19   39 1
    35   20   21 ar
    36   20   40 1
    37   21   26 1
    38   21   22 ar
    39   22   23 ar
    40   22   24 1
    41   23   41 1
    42   24   25 1
    43   25   26 1
    44   25   42 1
    45   25   43 1
@<TRIPOS>MOLECULE
ZINC03853116
   46    48     0     0     0
SMALL
USER_CHARGES

@<TRIPOS>ATOM
      1 C1         -2.1960    6.0088    1.0244 C.3       1 <0>        -0.0652
      2 O1         -3.2521    5.3733    0.3012 O.3       1 <0>        -0.1954
      3 C2         -3.0354    4.0963   -0.1131 C.ar      1 <0>         0.0900
      4 C3         -1.8367    3.4740    0.1705 C.ar      1 <0>        -0.2073
      5 C4         -1.6143    2.1564   -0.2575 C.ar      1 <0>        -0.0452
      6 C5         -2.6107    1.4797   -0.9774 C.ar      1 <0>        -0.1560
      7 C6         -3.8083    2.1084   -1.2512 C.ar      1 <0>         0.0936
      8 C7         -4.0245    3.4180   -0.8242 C.ar      1 <0>         0.0437
      9 O2         -5.2022    4.0346   -1.1013 O.3       1 <0>        -0.2594
     10 O3         -4.7771    1.4515   -1.9437 O.3       1 <0>        -0.1952
     11 C8         -4.5268    0.0829   -2.2697 C.3       1 <0>        -0.0652
     12 C9         -0.3457    1.4924    0.0406 C.2       1 <0>         0.0920
     13 C10        -0.3388    0.1871    0.4942 C.2       1 <0>        -0.2750
     14 C11         0.9133   -0.5889    0.5911 C.2       1 <0>         0.3521
     15 O4          1.9793   -0.0978    0.2715 O.2       1 <0>        -0.3290
     16 N1          0.8426   -1.8579    1.0433 N.am      1 <0>        -0.3403
     17 C12        -0.3251   -2.4116    1.3984 C.2       1 <0>         0.4098
     18 O5         -0.3191   -3.5596    1.7974 O.2       1 <0>        -0.3712
     19 N2         -1.4991   -1.7681    1.3369 N.am      1 <0>        -0.3027
     20 C13        -1.5825   -0.4913    0.9094 C.2       1 <0>         0.3487
     21 O6         -2.6535    0.0835    0.8628 O.2       1 <0>        -0.3214
     22 C14        -2.7197   -2.4655    1.7494 C.3       1 <0>         0.0333
     23 C15        -2.9369   -2.2664    3.2273 C.ar      1 <0>        -0.1220
     24 C16        -2.4303   -3.1826    4.1300 C.ar      1 <0>        -0.1013
     25 C17        -2.6251   -2.9971    5.4860 C.ar      1 <0>        -0.1365
     26 C18        -3.3362   -1.9015    5.9386 C.ar      1 <0>        -0.1170
     27 C19        -3.8473   -0.9881    5.0356 C.ar      1 <0>        -0.1354
     28 C20        -3.6477   -1.1706    3.6799 C.ar      1 <0>        -0.1045
     29 H1         -1.9814    5.4398    1.9290 H         1 <0>         0.0713
     30 H2         -1.3028    6.0507    0.4011 H         1 <0>         0.0654
     31 H3         -2.4982    7.0205    1.2947 H         1 <0>         0.1130
     32 H4         -1.0709    4.0005    0.7208 H         1 <0>         0.1419
     33 H5         -2.4423    0.4670   -1.3129 H         1 <0>         0.1438
     34 H6         -5.2062    4.5164   -1.9397 H         1 <0>         0.2252
     35 H7         -4.4143   -0.4945   -1.3520 H         1 <0>         0.0776
     36 H8         -5.3628   -0.3118   -2.8471 H         1 <0>         0.1109
     37 H9         -3.6124    0.0111   -2.8586 H         1 <0>         0.0627
     38 H10         0.5860    2.0208   -0.0981 H         1 <0>         0.1659
     39 H11         1.6559   -2.3819    1.1129 H         1 <0>         0.2731
     40 H12        -3.5710   -2.0641    1.1997 H         1 <0>         0.1195
     41 H13        -2.6193   -3.5300    1.5371 H         1 <0>         0.1241
     42 H14        -1.8788   -4.0411    3.7761 H         1 <0>         0.1477
     43 H15        -2.2255   -3.7105    6.1915 H         1 <0>         0.1315
     44 H16        -3.4922   -1.7589    6.9977 H         1 <0>         0.1288
     45 H17        -4.4029   -0.1322    5.3892 H         1 <0>         0.1323
     46 H18        -4.0473   -0.4572    2.9744 H         1 <0>         0.1472
@<TRIPOS>BOND
     1    1    2 1
     2    1   29 1
     3    1   30 1
     4    1   31 1
     5    2    3 1
     6    3    8 ar
     7    3    4 ar
     8    4    5 ar
     9    4   32 1
    10    5    6 ar
    11    5   12 1
    12    6    7 ar
    13    6   33 1
    14    7    8 ar
    15    7   10 1
    16    8    9 1
    17    9   34 1
    18   10   11 1
    19   11   35 1
    20   11   36 1
    21   11   37 1
    22   12   13 2
    23   12   38 1
    24   13   20 1
    25   13   14 1
    26   14   15 2
    27   14   16 am
    28   16   17 am
    29   16   39 1
    30   17   18 2
    31   17   19 am
    32   19   20 am
    33   19   22 1
    34   20   21 2
    35   22   23 1
    36   22   40 1
    37   22   41 1
    38   23   28 ar
    39   23   24 ar
    40   24   25 ar
    41   24   42 1
    42   25   26 ar
    43   25   43 1
    44   26   27 ar
    45   26   44 1
    46   27   28 ar
    47   27   45 1
    48   28   46 1
@<TRIPOS>MOLECULE
ZINC03853152
   43    45     0     0     0
SMALL
USER_CHARGES

@<TRIPOS>ATOM
      1 C1         -2.4708    0.0923    0.1318 C.3       1 <0>        -0.2107
      2 C2         -1.2943   -0.0009   -0.8419 C.3       1 <0>        -0.0184
      3 O1         -1.3195    1.1198   -1.7282 O.3       1 <0>        -0.2017
      4 C3         -0.3346    1.1896   -2.6633 C.ar      1 <0>         0.0607
      5 C4          0.6292    0.2046   -2.7242 C.ar      1 <0>        -0.1767
      6 C5          1.6432    0.2800   -3.6906 C.ar      1 <0>        -0.0841
      7 C6          1.6703    1.3570   -4.5888 C.ar      1 <0>        -0.0692
      8 C7          0.7041    2.3341   -4.5192 C.ar      1 <0>        -0.1308
      9 C8         -0.3029    2.2548   -3.5645 C.ar      1 <0>         0.0726
     10 O2         -1.2558    3.2196   -3.5049 O.3       1 <0>        -0.2754
     11 C9          2.6696   -0.7611   -3.7610 C.2       1 <0>         0.0849
     12 C10         3.1228   -1.2007   -4.9871 C.2       1 <0>        -0.2822
     13 C11         2.5875   -0.8557   -6.3186 C.2       1 <0>         0.3533
     14 O3          1.6483   -0.1191   -6.5536 O.2       1 <0>        -0.3290
     15 N1          3.3377   -1.5129   -7.2232 N.am      1 <0>        -0.2819
     16 N2          4.3262   -2.2644   -6.5881 N.am      1 <0>        -0.1702
     17 C12         4.2519   -2.1128   -5.2523 C.2       1 <0>         0.3623
     18 O4          4.9750   -2.6314   -4.4226 O.2       1 <0>        -0.3318
     19 C13         5.2683   -3.0599   -7.2478 C.ar      1 <0>         0.0851
     20 C14         6.2132   -3.7698   -6.5178 C.ar      1 <0>        -0.1616
     21 C15         7.1418   -4.5548   -7.1723 C.ar      1 <0>        -0.0948
     22 C16         7.1318   -4.6346   -8.5530 C.ar      1 <0>        -0.1507
     23 C17         6.1924   -3.9296   -9.2825 C.ar      1 <0>        -0.0457
     24 C18         5.2577   -3.1464   -8.6338 C.ar      1 <0>        -0.1746
     25 C19         6.1850   -4.0200  -10.7868 C.3       1 <0>        -0.1752
     26 H1         -2.3926    1.0137    0.7089 H         1 <0>         0.0876
     27 H2         -3.4063    0.0922   -0.4276 H         1 <0>         0.0922
     28 H3         -2.4516   -0.7625    0.8078 H         1 <0>         0.0865
     29 H4         -1.3725   -0.9223   -1.4190 H         1 <0>         0.0761
     30 H5         -0.3588   -0.0008   -0.2825 H         1 <0>         0.0701
     31 H6          0.6034   -0.6221   -2.0297 H         1 <0>         0.1407
     32 H7          2.4493    1.4195   -5.3342 H         1 <0>         0.1495
     33 H8          0.7258    3.1630   -5.2113 H         1 <0>         0.1504
     34 H9         -1.0303    3.9600   -2.9253 H         1 <0>         0.2275
     35 H10         3.0719   -1.1851   -2.8529 H         1 <0>         0.1565
     36 H11         3.2087   -1.4695   -8.1836 H         1 <0>         0.2741
     37 H12         6.2213   -3.7082   -5.4396 H         1 <0>         0.1813
     38 H13         7.8765   -5.1073   -6.6053 H         1 <0>         0.1380
     39 H14         7.8592   -5.2493   -9.0624 H         1 <0>         0.1330
     40 H15         4.5216   -2.5992   -9.2040 H         1 <0>         0.1260
     41 H16         5.5419   -4.8432  -11.0981 H         1 <0>         0.0892
     42 H17         5.8084   -3.0865  -11.2050 H         1 <0>         0.0816
     43 H18         7.1993   -4.1957  -11.1452 H         1 <0>         0.0854
@<TRIPOS>BOND
     1    1    2 1
     2    1   26 1
     3    1   27 1
     4    1   28 1
     5    2    3 1
     6    2   29 1
     7    2   30 1
     8    3    4 1
     9    4    9 ar
    10    4    5 ar
    11    5    6 ar
    12    5   31 1
    13    6    7 ar
    14    6   11 1
    15    7    8 ar
    16    7   32 1
    17    8    9 ar
    18    8   33 1
    19    9   10 1
    20   10   34 1
    21   11   12 2
    22   11   35 1
    23   12   17 1
    24   12   13 1
    25   13   14 2
    26   13   15 am
    27   15   16 1
    28   15   36 1
    29   16   17 am
    30   16   19 1
    31   17   18 2
    32   19   24 ar
    33   19   20 ar
    34   20   21 ar
    35   20   37 1
    36   21   22 ar
    37   21   38 1
    38   22   23 ar
    39   22   39 1
    40   23   24 ar
    41   23   25 1
    42   24   40 1
    43   25   41 1
    44   25   42 1
    45   25   43 1
@<TRIPOS>MOLECULE
ZINC03853153
   43    45     0     0     0
SMALL
USER_CHARGES

@<TRIPOS>ATOM
      1 C1          5.2924    7.7954    2.8889 C.3       1 <0>        -0.2107
      2 C2          4.5945    6.6378    2.1720 C.3       1 <0>        -0.0185
      3 O1          5.5749    5.7888    1.5720 O.3       1 <0>        -0.2017
      4 C3          5.1184    4.7041    0.8904 C.ar      1 <0>         0.0613
      5 C4          3.7622    4.4686    0.7983 C.ar      1 <0>        -0.1768
      6 C5          3.2955    3.3460    0.0985 C.ar      1 <0>        -0.0840
      7 C6          4.2108    2.4761   -0.5123 C.ar      1 <0>        -0.0714
      8 C7          5.5611    2.7231   -0.4184 C.ar      1 <0>        -0.1309
      9 C8          6.0219    3.8330    0.2800 C.ar      1 <0>         0.0720
     10 O2          7.3553    4.0708    0.3682 O.3       1 <0>        -0.2756
     11 C9          1.8583    3.0867    0.0009 C.2       1 <0>         0.0844
     12 C10         1.3837    1.7944    0.0827 C.2       1 <0>        -0.2815
     13 C11         0.0021    1.3291   -0.1472 C.2       1 <0>         0.3573
     14 O3         -0.9529    2.0173   -0.4541 O.2       1 <0>        -0.3342
     15 N1          0.0024   -0.0040    0.0422 N.am      1 <0>        -0.2823
     16 N2          1.2796   -0.4515    0.3793 N.am      1 <0>        -0.1697
     17 C12         2.1472    0.5774    0.4191 C.2       1 <0>         0.3580
     18 O4          3.3336    0.5154    0.6814 O.2       1 <0>        -0.3262
     19 C13         1.6130   -1.7844    0.6400 C.ar      1 <0>         0.0841
     20 C14         2.9194   -2.1237    0.9685 C.ar      1 <0>        -0.1619
     21 C15         3.2452   -3.4407    1.2258 C.ar      1 <0>        -0.0945
     22 C16         2.2724   -4.4214    1.1571 C.ar      1 <0>        -0.1506
     23 C17         0.9711   -4.0870    0.8308 C.ar      1 <0>        -0.0459
     24 C18         0.6376   -2.7709    0.5766 C.ar      1 <0>        -0.1745
     25 C19        -0.0857   -5.1588    0.7576 C.3       1 <0>        -0.1752
     26 H1          5.9519    7.3996    3.6613 H         1 <0>         0.0922
     27 H2          5.8779    8.3681    2.1697 H         1 <0>         0.0876
     28 H3          4.5446    8.4430    3.3465 H         1 <0>         0.0867
     29 H4          3.9350    7.0336    1.3996 H         1 <0>         0.0703
     30 H5          4.0091    6.0651    2.8912 H         1 <0>         0.0762
     31 H6          3.0621    5.1443    1.2669 H         1 <0>         0.1410
     32 H7          3.8559    1.6129   -1.0556 H         1 <0>         0.1496
     33 H8          6.2651    2.0528   -0.8890 H         1 <0>         0.1502
     34 H9          7.7049    4.6207   -0.3463 H         1 <0>         0.2278
     35 H10         1.1695    3.9073   -0.1352 H         1 <0>         0.1578
     36 H11        -0.7776   -0.5741   -0.0437 H         1 <0>         0.2746
     37 H12         3.6795   -1.3583    1.0223 H         1 <0>         0.1816
     38 H13         4.2607   -3.7051    1.4813 H         1 <0>         0.1385
     39 H14         2.5297   -5.4506    1.3591 H         1 <0>         0.1331
     40 H15        -0.3798   -2.5098    0.3254 H         1 <0>         0.1259
     41 H16        -0.5536   -5.2751    1.7352 H         1 <0>         0.0892
     42 H17        -0.8410   -4.8749    0.0248 H         1 <0>         0.0814
     43 H18         0.3730   -6.1017    0.4598 H         1 <0>         0.0854
@<TRIPOS>BOND
     1    1    2 1
     2    1   26 1
     3    1   27 1
     4    1   28 1
     5    2    3 1
     6    2   29 1
     7    2   30 1
     8    3    4 1
     9    4    9 ar
    10    4    5 ar
    11    5    6 ar
    12    5   31 1
    13    6    7 ar
    14    6   11 1
    15    7    8 ar
    16    7   32 1
    17    8    9 ar
    18    8   33 1
    19    9   10 1
    20   10   34 1
    21   11   12 2
    22   11   35 1
    23   12   17 1
    24   12   13 1
    25   13   14 2
    26   13   15 am
    27   15   16 1
    28   15   36 1
    29   16   17 am
    30   16   19 1
    31   17   18 2
    32   19   24 ar
    33   19   20 ar
    34   20   21 ar
    35   20   37 1
    36   21   22 ar
    37   21   38 1
    38   22   23 ar
    39   22   39 1
    40   23   24 ar
    41   23   25 1
    42   24   40 1
    43   25   41 1
    44   25   42 1
    45   25   43 1
@<TRIPOS>MOLECULE
ZINC03853628
   43    45     0     0     0
SMALL
USER_CHARGES

@<TRIPOS>ATOM
      1 C1          2.4118    1.2209   -1.4734 C.3       1 <0>        -0.1745
      2 C2          1.1136    1.9238   -1.1709 C.ar      1 <0>        -0.0962
      3 C3         -0.0800    1.2284   -1.2395 C.ar      1 <0>        -0.0947
      4 C4         -1.2717    1.8709   -0.9680 C.ar      1 <0>        -0.1577
      5 C5         -1.2701    3.2146   -0.6158 C.ar      1 <0>         0.0779
      6 C6         -0.0700    3.9101   -0.5483 C.ar      1 <0>        -0.1700
      7 C7          1.1182    3.2627   -0.8257 C.ar      1 <0>        -0.0464
      8 C8          2.4211    4.0166   -0.7527 C.3       1 <0>        -0.1775
      9 N1         -2.4748    3.8671   -0.3355 N.am      1 <0>        -0.1690
     10 C9         -3.6888    3.2862   -0.3777 C.2       1 <0>         0.3576
     11 O1         -3.9285    2.1275   -0.6604 O.2       1 <0>        -0.3271
     12 C10        -4.6726    4.3237   -0.0129 C.2       1 <0>        -0.2808
     13 C11        -6.0417    4.1861    0.0794 C.2       1 <0>         0.0832
     14 C12        -6.6532    2.8609   -0.0310 C.ar      1 <0>        -0.0835
     15 C13        -6.0320    1.7481    0.5550 C.ar      1 <0>        -0.0706
     16 C14        -6.6098    0.5038    0.4490 C.ar      1 <0>        -0.1311
     17 C15        -7.8082    0.3456   -0.2370 C.ar      1 <0>         0.0731
     18 C16        -8.4334    1.4473   -0.8227 C.ar      1 <0>         0.0575
     19 C17        -7.8653    2.7001   -0.7184 C.ar      1 <0>        -0.1760
     20 O2         -9.6061    1.2866   -1.4923 O.3       1 <0>        -0.1996
     21 C18       -10.1907    2.4570   -2.0670 C.3       1 <0>        -0.0658
     22 O3         -8.3727   -0.8847   -0.3372 O.3       1 <0>        -0.2756
     23 C19        -3.8745    5.5420    0.2261 C.2       1 <0>         0.3572
     24 O4         -4.2996    6.6355    0.5475 O.2       1 <0>        -0.3345
     25 N2         -2.5856    5.2109    0.0206 N.am      1 <0>        -0.2822
     26 H1          2.6325    1.3075   -2.5373 H         1 <0>         0.0869
     27 H2          3.2157    1.6786   -0.8971 H         1 <0>         0.0839
     28 H3          2.3260    0.1680   -1.2047 H         1 <0>         0.0819
     29 H4         -0.0803    0.1828   -1.5100 H         1 <0>         0.1393
     30 H5         -2.2038    1.3283   -1.0257 H         1 <0>         0.1815
     31 H6         -0.0657    4.9561   -0.2794 H         1 <0>         0.1258
     32 H7          2.6427    4.4541   -1.7261 H         1 <0>         0.0893
     33 H8          2.3413    4.8086   -0.0081 H         1 <0>         0.0805
     34 H9          3.2215    3.3324   -0.4712 H         1 <0>         0.0888
     35 H10        -6.6627    5.0562    0.2333 H         1 <0>         0.1577
     36 H11        -5.1008    1.8678    1.0886 H         1 <0>         0.1499
     37 H12        -6.1308   -0.3524    0.9005 H         1 <0>         0.1504
     38 H13        -8.3507    3.5540   -1.1675 H         1 <0>         0.1411
     39 H14        -9.4989    2.8920   -2.7883 H         1 <0>         0.0704
     40 H15       -11.1197    2.1894   -2.5705 H         1 <0>         0.1117
     41 H16       -10.3995    3.1825   -1.2807 H         1 <0>         0.0644
     42 H17        -8.9835   -1.0969    0.3818 H         1 <0>         0.2281
     43 H18        -1.8377    5.8224    0.1085 H         1 <0>         0.2746
@<TRIPOS>BOND
     1    1    2 1
     2    1   26 1
     3    1   27 1
     4    1   28 1
     5    2    7 ar
     6    2    3 ar
     7    3    4 ar
     8    3   29 1
     9    4    5 ar
    10    4   30 1
    11    5    6 ar
    12    5    9 1
    13    6    7 ar
    14    6   31 1
    15    7    8 1
    16    8   32 1
    17    8   33 1
    18    8   34 1
    19    9   25 1
    20    9   10 am
    21   10   11 2
    22   10   12 1
    23   12   13 2
    24   12   23 1
    25   13   14 1
    26   13   35 1
    27   14   19 ar
    28   14   15 ar
    29   15   16 ar
    30   15   36 1
    31   16   17 ar
    32   16   37 1
    33   17   18 ar
    34   17   22 1
    35   18   19 ar
    36   18   20 1
    37   19   38 1
    38   20   21 1
    39   21   39 1
    40   21   40 1
    41   21   41 1
    42   22   42 1
    43   23   24 2
    44   23   25 am
    45   25   43 1
@<TRIPOS>MOLECULE
ZINC03853646
   40    42     0     0     0
SMALL
USER_CHARGES

@<TRIPOS>ATOM
      1 C1          1.5304   11.8893    1.2745 C.3       1 <0>        -0.2110
      2 C2          0.6862   10.7638    0.6732 C.3       1 <0>        -0.0174
      3 O1          1.3808    9.5224    0.8096 O.3       1 <0>        -0.2031
      4 C3          0.7634    8.4127    0.3226 C.ar      1 <0>         0.0636
      5 C4         -0.4826    8.5189   -0.2726 C.ar      1 <0>        -0.1853
      6 C5         -1.1207    7.3941   -0.7723 C.ar      1 <0>        -0.1060
      7 C6         -0.5236    6.1575   -0.6836 C.ar      1 <0>        -0.0760
      8 C7          0.7385    6.0304   -0.0840 C.ar      1 <0>        -0.0994
      9 C8          1.3813    7.1712    0.4273 C.ar      1 <0>         0.0753
     10 O2          2.5998    7.0626    1.0145 O.3       1 <0>        -0.2735
     11 C9          1.3785    4.7183    0.0139 C.2       1 <0>         0.0981
     12 C10         0.6298    3.6089    0.3467 C.2       1 <0>        -0.2803
     13 C11        -0.7793    3.5751    0.7842 C.2       1 <0>         0.3551
     14 O3         -1.5184    4.5313    0.9231 O.2       1 <0>        -0.3306
     15 N1         -1.0920    2.2823    0.9940 N.am      1 <0>        -0.2827
     16 N2          0.0073    1.4635    0.7366 N.am      1 <0>        -0.1708
     17 C12         1.0642    2.1989    0.3429 C.2       1 <0>         0.3634
     18 O4          2.1663    1.7807    0.0418 O.2       1 <0>        -0.3316
     19 C13         0.0096    0.0708    0.8640 C.ar      1 <0>         0.0826
     20 C14         1.1581   -0.6530    0.5701 C.ar      1 <0>        -0.1562
     21 C15         1.1586   -2.0278    0.7020 C.ar      1 <0>        -0.0980
     22 C16         0.0141   -2.6847    1.1154 C.ar      1 <0>        -0.1511
     23 C17        -1.1326   -1.9675    1.4033 C.ar      1 <0>        -0.0993
     24 C18        -1.1382   -0.5921    1.2790 C.ar      1 <0>        -0.1740
     25 H1          1.7075   11.6861    2.3306 H         1 <0>         0.0920
     26 H2          2.4845   11.9473    0.7506 H         1 <0>         0.0874
     27 H3          1.0006   12.8361    1.1704 H         1 <0>         0.0866
     28 H4          0.5091   10.9669   -0.3829 H         1 <0>         0.0710
     29 H5         -0.2679   10.7057    1.1971 H         1 <0>         0.0769
     30 H6         -0.9606    9.4844   -0.3477 H         1 <0>         0.1393
     31 H7         -2.0922    7.4890   -1.2344 H         1 <0>         0.1378
     32 H8         -1.0259    5.2855   -1.0756 H         1 <0>         0.1475
     33 H9          3.3417    7.1627    0.4024 H         1 <0>         0.2271
     34 H10         2.4373    4.6186   -0.1744 H         1 <0>         0.1583
     35 H11        -1.9608    1.9647    1.2860 H         1 <0>         0.2734
     36 H12         2.0509   -0.1409    0.2429 H         1 <0>         0.1822
     37 H13         2.0526   -2.5908    0.4780 H         1 <0>         0.1380
     38 H14         0.0159   -3.7602    1.2134 H         1 <0>         0.1322
     39 H15        -2.0248   -2.4835    1.7259 H         1 <0>         0.1334
     40 H16        -2.0339   -0.0325    1.5046 H         1 <0>         0.1250
@<TRIPOS>BOND
     1    1    2 1
     2    1   25 1
     3    1   26 1
     4    1   27 1
     5    2    3 1
     6    2   28 1
     7    2   29 1
     8    3    4 1
     9    4    9 ar
    10    4    5 ar
    11    5    6 ar
    12    5   30 1
    13    6    7 ar
    14    6   31 1
    15    7    8 ar
    16    7   32 1
    17    8    9 ar
    18    8   11 1
    19    9   10 1
    20   10   33 1
    21   11   12 2
    22   11   34 1
    23   12   17 1
    24   12   13 1
    25   13   14 2
    26   13   15 am
    27   15   16 1
    28   15   35 1
    29   16   17 am
    30   16   19 1
    31   17   18 2
    32   19   24 ar
    33   19   20 ar
    34   20   21 ar
    35   20   36 1
    36   21   22 ar
    37   21   37 1
    38   22   23 ar
    39   22   38 1
    40   23   24 ar
    41   23   39 1
    42   24   40 1
@<TRIPOS>MOLECULE
ZINC03853647
   40    42     0     0     0
SMALL
USER_CHARGES

@<TRIPOS>ATOM
      1 C1          3.4036   13.6076   -2.4321 C.3       1 <0>        -0.2110
      2 C2          2.7616   12.4767   -1.6259 C.3       1 <0>        -0.0174
      3 O1          3.6518   11.3598   -1.5799 O.3       1 <0>        -0.2028
      4 C3          3.2302   10.2620   -0.8966 C.ar      1 <0>         0.0637
      5 C4          1.9876   10.2626   -0.2847 C.ar      1 <0>        -0.1851
      6 C5          1.5484    9.1491    0.4147 C.ar      1 <0>        -0.1074
      7 C6          2.3391    8.0265    0.5046 C.ar      1 <0>        -0.0759
      8 C7          3.6032    8.0095   -0.1038 C.ar      1 <0>        -0.1007
      9 C8          4.0471    9.1398   -0.8122 C.ar      1 <0>         0.0756
     10 O2          5.2650    9.1356   -1.4103 O.3       1 <0>        -0.2772
     11 C9          4.4513    6.8212   -0.0068 C.2       1 <0>         0.0954
     12 C10         3.8965    5.5654   -0.1376 C.2       1 <0>        -0.2875
     13 C11         4.5593    4.2642    0.0765 C.2       1 <0>         0.3580
     14 O3          5.7161    4.0859    0.4079 O.2       1 <0>        -0.3303
     15 N1          3.6364    3.3125   -0.1591 N.am      1 <0>        -0.2837
     16 N2          2.4191    3.8884   -0.5217 N.am      1 <0>        -0.1699
     17 C12         2.5118    5.2317   -0.5227 C.2       1 <0>         0.3583
     18 O4          1.6241    6.0193   -0.7906 O.2       1 <0>        -0.3318
     19 C13         1.2607    3.1703   -0.8349 C.ar      1 <0>         0.0816
     20 C14         1.2727    1.7818   -0.8033 C.ar      1 <0>        -0.1733
     21 C15         0.1272    1.0755   -1.1136 C.ar      1 <0>        -0.0988
     22 C16        -1.0295    1.7492   -1.4607 C.ar      1 <0>        -0.1508
     23 C17        -1.0463    3.1317   -1.4881 C.ar      1 <0>        -0.0984
     24 C18         0.0958    3.8439   -1.1788 C.ar      1 <0>        -0.1576
     25 H1          4.3381   13.9070   -1.9575 H         1 <0>         0.0912
     26 H2          3.6055   13.2619   -3.4459 H         1 <0>         0.0883
     27 H3          2.7247   14.4596   -2.4672 H         1 <0>         0.0866
     28 H4          1.8272   12.1773   -2.1005 H         1 <0>         0.0730
     29 H5          2.5598   12.8225   -0.6121 H         1 <0>         0.0749
     30 H6          1.3568   11.1366   -0.3526 H         1 <0>         0.1393
     31 H7          0.5777    9.1612    0.8880 H         1 <0>         0.1377
     32 H8          1.9887    7.1607    1.0468 H         1 <0>         0.1477
     33 H9          5.2542    8.8143   -2.3224 H         1 <0>         0.2318
     34 H10         5.5119    6.9275    0.1672 H         1 <0>         0.1709
     35 H11         3.7969    2.3584   -0.0893 H         1 <0>         0.2744
     36 H12         2.1770    1.2549   -0.5366 H         1 <0>         0.1258
     37 H13         0.1360   -0.0042   -1.0895 H         1 <0>         0.1340
     38 H14        -1.9228    1.1945   -1.7070 H         1 <0>         0.1325
     39 H15        -1.9523    3.6549   -1.7559 H         1 <0>         0.1376
     40 H16         0.0830    4.9236   -1.2040 H         1 <0>         0.1811
@<TRIPOS>BOND
     1    1    2 1
     2    1   25 1
     3    1   26 1
     4    1   27 1
     5    2    3 1
     6    2   28 1
     7    2   29 1
     8    3    4 1
     9    4    9 ar
    10    4    5 ar
    11    5    6 ar
    12    5   30 1
    13    6    7 ar
    14    6   31 1
    15    7    8 ar
    16    7   32 1
    17    8    9 ar
    18    8   11 1
    19    9   10 1
    20   10   33 1
    21   11   12 2
    22   11   34 1
    23   12   17 1
    24   12   13 1
    25   13   14 2
    26   13   15 am
    27   15   16 1
    28   15   35 1
    29   16   17 am
    30   16   19 1
    31   17   18 2
    32   19   24 ar
    33   19   20 ar
    34   20   21 ar
    35   20   36 1
    36   21   22 ar
    37   21   37 1
    38   22   23 ar
    39   22   38 1
    40   23   24 ar
    41   23   39 1
    42   24   40 1
@<TRIPOS>MOLECULE
ZINC03853684
   41    43     0     0     0
SMALL
USER_CHARGES

@<TRIPOS>ATOM
      1 C1          5.1451    7.2315   -1.4019 C.3       1 <0>        -0.0649
      2 O1          5.8091    6.1178   -0.8013 O.3       1 <0>        -0.1958
      3 C2          5.0236    5.1232   -0.3082 C.ar      1 <0>         0.0905
      4 C3          3.6498    5.2196   -0.4016 C.ar      1 <0>        -0.2128
      5 C4          2.8408    4.1929    0.1070 C.ar      1 <0>        -0.0461
      6 C5          3.4322    3.0751    0.7136 C.ar      1 <0>        -0.1654
      7 C6          4.8071    2.9848    0.7973 C.ar      1 <0>         0.0971
      8 C7          5.6071    4.0076    0.2904 C.ar      1 <0>         0.0400
      9 O2          6.9593    3.9168    0.3797 O.3       1 <0>        -0.2594
     10 O3          5.3818    1.8988    1.3802 O.3       1 <0>        -0.1950
     11 C8          4.5026    0.8883    1.8781 C.3       1 <0>        -0.0685
     12 C9          1.3836    4.2905    0.0103 C.2       1 <0>         0.0859
     13 C10         0.6332    3.1645   -0.2564 C.2       1 <0>        -0.2817
     14 C11         1.1262    1.8266   -0.6377 C.2       1 <0>         0.3532
     15 O4          2.2882    1.4957   -0.7801 O.2       1 <0>        -0.3313
     16 N1          0.0434    1.0425   -0.7978 N.am      1 <0>        -0.2819
     17 N2         -1.1252    1.7642   -0.5559 N.am      1 <0>        -0.1708
     18 C12        -0.8363    3.0365   -0.2229 C.2       1 <0>         0.3621
     19 O5         -1.6343    3.9138    0.0484 O.2       1 <0>        -0.3305
     20 C13        -2.4181    1.2385   -0.6440 C.ar      1 <0>         0.0811
     21 C14        -3.5170    2.0448   -0.3768 C.ar      1 <0>        -0.1560
     22 C15        -4.7927    1.5240   -0.4704 C.ar      1 <0>        -0.0977
     23 C16        -4.9762    0.1984   -0.8185 C.ar      1 <0>        -0.1500
     24 C17        -3.8840   -0.6086   -1.0797 C.ar      1 <0>        -0.0989
     25 C18        -2.6059   -0.0926   -0.9935 C.ar      1 <0>        -0.1737
     26 H1          4.5463    6.8861   -2.2447 H         1 <0>         0.0711
     27 H2          4.4967    7.7077   -0.6665 H         1 <0>         0.0652
     28 H3          5.8857    7.9501   -1.7528 H         1 <0>         0.1122
     29 H4          3.1987    6.0841   -0.8658 H         1 <0>         0.1411
     30 H5          2.8130    2.2845    1.1108 H         1 <0>         0.1542
     31 H6          7.3266    4.2982    1.1889 H         1 <0>         0.2242
     32 H7          5.0887    0.0806    2.3166 H         1 <0>         0.1089
     33 H8          3.8494    1.3172    2.6380 H         1 <0>         0.0619
     34 H9          3.8991    0.4962    1.0595 H         1 <0>         0.0870
     35 H10         0.8960    5.2443    0.1478 H         1 <0>         0.1582
     36 H11         0.0719    0.1065   -1.0505 H         1 <0>         0.2740
     37 H12        -3.3742    3.0790   -0.1001 H         1 <0>         0.1820
     38 H13        -5.6478    2.1516   -0.2670 H         1 <0>         0.1386
     39 H14        -5.9746   -0.2077   -0.8863 H         1 <0>         0.1330
     40 H15        -4.0307   -1.6435   -1.3517 H         1 <0>         0.1341
     41 H16        -1.7533   -0.7234   -1.1972 H         1 <0>         0.1249
@<TRIPOS>BOND
     1    1    2 1
     2    1   26 1
     3    1   27 1
     4    1   28 1
     5    2    3 1
     6    3    8 ar
     7    3    4 ar
     8    4    5 ar
     9    4   29 1
    10    5    6 ar
    11    5   12 1
    12    6    7 ar
    13    6   30 1
    14    7    8 ar
    15    7   10 1
    16    8    9 1
    17    9   31 1
    18   10   11 1
    19   11   32 1
    20   11   33 1
    21   11   34 1
    22   12   13 2
    23   12   35 1
    24   13   18 1
    25   13   14 1
    26   14   15 2
    27   14   16 am
    28   16   17 1
    29   16   36 1
    30   17   18 am
    31   17   20 1
    32   18   19 2
    33   20   25 ar
    34   20   21 ar
    35   21   22 ar
    36   21   37 1
    37   22   23 ar
    38   22   38 1
    39   23   24 ar
    40   23   39 1
    41   24   25 ar
    42   24   40 1
    43   25   41 1
@<TRIPOS>MOLECULE
ZINC03853685
   41    43     0     0     0
SMALL
USER_CHARGES

@<TRIPOS>ATOM
      1 C1          4.7449    5.2711    1.6436 C.3       1 <0>        -0.0682
      2 O1          5.9595    5.5136    0.9309 O.3       1 <0>        -0.1953
      3 C2          6.5538    4.4418    0.3413 C.ar      1 <0>         0.0967
      4 C3          5.9803    3.1908    0.4478 C.ar      1 <0>        -0.1679
      5 C4          6.5942    2.0862   -0.1608 C.ar      1 <0>        -0.0456
      6 C5          7.7919    2.2577   -0.8703 C.ar      1 <0>        -0.2129
      7 C6          8.3545    3.5137   -0.9771 C.ar      1 <0>         0.0913
      8 C7          7.7410    4.6085   -0.3702 C.ar      1 <0>         0.0394
      9 O2          8.3014    5.8414   -0.4727 O.3       1 <0>        -0.2594
     10 O3          9.5121    3.6824   -1.6706 O.3       1 <0>        -0.1958
     11 C8         10.0866    2.5178   -2.2671 C.3       1 <0>        -0.0650
     12 C9          5.9900    0.7577   -0.0508 C.2       1 <0>         0.0850
     13 C10         4.6199    0.6152   -0.1214 C.2       1 <0>        -0.2804
     14 C11         3.8308   -0.6081    0.1216 C.2       1 <0>         0.3572
     15 O4          4.2656   -1.7023    0.4275 O.2       1 <0>        -0.3321
     16 N1          2.5375   -0.2810   -0.0607 N.am      1 <0>        -0.2826
     17 N2          2.4154    1.0649   -0.4052 N.am      1 <0>        -0.1702
     18 C12         3.6262    1.6513   -0.4620 C.2       1 <0>         0.3576
     19 O5          3.8565    2.8133   -0.7393 O.2       1 <0>        -0.3281
     20 C13         1.2037    1.7141   -0.6620 C.ar      1 <0>         0.0802
     21 C14         0.0076    1.0128   -0.5810 C.ar      1 <0>        -0.1731
     22 C15        -1.1869    1.6558   -0.8399 C.ar      1 <0>        -0.0985
     23 C16        -1.1938    2.9989   -1.1693 C.ar      1 <0>        -0.1499
     24 C17        -0.0046    3.7000   -1.2508 C.ar      1 <0>        -0.0976
     25 C18         1.1938    3.0617   -0.9982 C.ar      1 <0>        -0.1584
     26 H1          4.9316    4.5602    2.4485 H         1 <0>         0.0630
     27 H2          4.3771    6.2072    2.0638 H         1 <0>         0.1094
     28 H3          3.9995    4.8610    0.9623 H         1 <0>         0.0850
     29 H4          5.0602    3.0627    0.9985 H         1 <0>         0.1537
     30 H5          8.2706    1.4092   -1.3364 H         1 <0>         0.1415
     31 H6          8.9266    6.0494    0.2351 H         1 <0>         0.2243
     32 H7         11.0039    2.7915   -2.7884 H         1 <0>         0.1124
     33 H8         10.3138    1.7867   -1.4912 H         1 <0>         0.0654
     34 H9          9.3802    2.0870   -2.9766 H         1 <0>         0.0713
     35 H10         6.6169   -0.1110    0.0858 H         1 <0>         0.1597
     36 H11         1.7936   -0.8964    0.0342 H         1 <0>         0.2750
     37 H12         0.0120   -0.0352   -0.3202 H         1 <0>         0.1257
     38 H13        -2.1171    1.1101   -0.7811 H         1 <0>         0.1345
     39 H14        -2.1296    3.5004   -1.3673 H         1 <0>         0.1334
     40 H15        -0.0130    4.7477   -1.5126 H         1 <0>         0.1391
     41 H16         2.1222    3.6097   -1.0624 H         1 <0>         0.1808
@<TRIPOS>BOND
     1    1    2 1
     2    1   26 1
     3    1   27 1
     4    1   28 1
     5    2    3 1
     6    3    8 ar
     7    3    4 ar
     8    4    5 ar
     9    4   29 1
    10    5    6 ar
    11    5   12 1
    12    6    7 ar
    13    6   30 1
    14    7    8 ar
    15    7   10 1
    16    8    9 1
    17    9   31 1
    18   10   11 1
    19   11   32 1
    20   11   33 1
    21   11   34 1
    22   12   13 2
    23   12   35 1
    24   13   18 1
    25   13   14 1
    26   14   15 2
    27   14   16 am
    28   16   17 1
    29   16   36 1
    30   17   18 am
    31   17   20 1
    32   18   19 2
    33   20   25 ar
    34   20   21 ar
    35   21   22 ar
    36   21   37 1
    37   22   23 ar
    38   22   38 1
    39   23   24 ar
    40   23   39 1
    41   24   25 ar
    42   24   40 1
    43   25   41 1
@<TRIPOS>MOLECULE
ZINC03853706
   40    42     0     0     0
SMALL
USER_CHARGES

@<TRIPOS>ATOM
      1 C1         -4.6179    4.2291   -2.2088 C.3       1 <0>        -0.1725
      2 C2         -3.3909    3.4385   -1.8340 C.ar      1 <0>        -0.0960
      3 C3         -2.1877    4.0885   -1.6281 C.ar      1 <0>        -0.0994
      4 C4         -1.0614    3.3670   -1.2845 C.ar      1 <0>        -0.1687
      5 C5         -1.1379    1.9871   -1.1457 C.ar      1 <0>         0.0746
      6 C6         -2.3466    1.3368   -1.3588 C.ar      1 <0>        -0.1530
      7 C7         -3.4704    2.0648   -1.6970 C.ar      1 <0>        -0.0988
      8 N1          0.0007    1.2536   -0.7978 N.am      1 <0>        -0.1687
      9 C8          0.0322   -0.0831   -0.6388 C.2       1 <0>         0.3590
     10 O1         -0.9035   -0.8503   -0.7649 O.2       1 <0>        -0.3323
     11 C9          1.4192   -0.4392   -0.2828 C.2       1 <0>        -0.2838
     12 C10         1.9225   -1.6970   -0.0247 C.2       1 <0>         0.0866
     13 C11         1.0146   -2.8394    0.0891 C.ar      1 <0>        -0.0851
     14 C12        -0.2321   -2.6881    0.7138 C.ar      1 <0>        -0.0687
     15 C13        -1.0832   -3.7641    0.8186 C.ar      1 <0>        -0.1318
     16 C14        -0.7115   -5.0018    0.3070 C.ar      1 <0>         0.0741
     17 C15         0.5268   -5.1614   -0.3166 C.ar      1 <0>         0.0570
     18 C16         1.3857   -4.0880   -0.4313 C.ar      1 <0>        -0.1752
     19 O2          0.8850   -6.3747   -0.8157 O.3       1 <0>        -0.1996
     20 C17         2.1666   -6.4663   -1.4410 C.3       1 <0>        -0.0658
     21 O3         -1.5560   -6.0590    0.4139 O.3       1 <0>        -0.2778
     22 C18         2.1510    0.8424   -0.2619 C.2       1 <0>         0.3577
     23 O4          3.3309    0.9993   -0.0109 O.2       1 <0>        -0.3331
     24 N2          1.2621    1.8046   -0.5734 N.am      1 <0>        -0.2827
     25 H1         -4.6825    4.3067   -3.2941 H         1 <0>         0.0868
     26 H2         -5.5056    3.7247   -1.8272 H         1 <0>         0.0828
     27 H3         -4.5530    5.2275   -1.7763 H         1 <0>         0.0814
     28 H4         -2.1289    5.1615   -1.7358 H         1 <0>         0.1350
     29 H5         -0.1221    3.8752   -1.1235 H         1 <0>         0.1256
     30 H6         -2.4083    0.2634   -1.2564 H         1 <0>         0.1809
     31 H7         -4.4115    1.5602   -1.8588 H         1 <0>         0.1388
     32 H8          2.9866   -1.8390    0.0934 H         1 <0>         0.1587
     33 H9         -0.5237   -1.7277    1.1127 H         1 <0>         0.1504
     34 H10        -2.0431   -3.6466    1.2995 H         1 <0>         0.1506
     35 H11         2.3426   -4.2096   -0.9170 H         1 <0>         0.1410
     36 H12         2.3267   -7.4850   -1.7941 H         1 <0>         0.1118
     37 H13         2.2090   -5.7782   -2.2853 H         1 <0>         0.0665
     38 H14         2.9419   -6.2055   -0.7205 H         1 <0>         0.0683
     39 H15        -2.1643   -6.1535   -0.3319 H         1 <0>         0.2307
     40 H16         1.4703    2.7501   -0.6338 H         1 <0>         0.2746
@<TRIPOS>BOND
     1    1    2 1
     2    1   25 1
     3    1   26 1
     4    1   27 1
     5    2    7 ar
     6    2    3 ar
     7    3    4 ar
     8    3   28 1
     9    4    5 ar
    10    4   29 1
    11    5    6 ar
    12    5    8 1
    13    6    7 ar
    14    6   30 1
    15    7   31 1
    16    8   24 1
    17    8    9 am
    18    9   10 2
    19    9   11 1
    20   11   12 2
    21   11   22 1
    22   12   13 1
    23   12   32 1
    24   13   18 ar
    25   13   14 ar
    26   14   15 ar
    27   14   33 1
    28   15   16 ar
    29   15   34 1
    30   16   17 ar
    31   16   21 1
    32   17   18 ar
    33   17   19 1
    34   18   35 1
    35   19   20 1
    36   20   36 1
    37   20   37 1
    38   20   38 1
    39   21   39 1
    40   22   23 2
    41   22   24 am
    42   24   40 1
@<TRIPOS>MOLECULE
ZINC03853719
   42    44     0     0     0
SMALL
USER_CHARGES

@<TRIPOS>ATOM
      1 C1        -11.5767    3.1212   -0.2178 C.3       1 <0>        -0.2156
      2 C2        -11.1296    4.5818   -0.3044 C.3       1 <0>        -0.0036
      3 O1         -9.6798    4.6477   -0.2588 O.3       1 <0>        -0.2693
      4 C3         -9.1207    5.8719   -0.3251 C.2       1 <0>         0.3533
      5 O2         -9.8253    6.8574   -0.4184 O.2       1 <0>        -0.3651
      6 C4         -7.6538    6.0156   -0.2843 C.ar      1 <0>        -0.1418
      7 C5         -7.0719    7.2851   -0.3529 C.ar      1 <0>        -0.0341
      8 C6         -5.7023    7.4156   -0.3142 C.ar      1 <0>        -0.1942
      9 C7         -4.8968    6.2858   -0.2063 C.ar      1 <0>         0.1126
     10 C8         -5.4724    5.0202   -0.1431 C.ar      1 <0>        -0.1810
     11 C9         -6.8415    4.8827   -0.1765 C.ar      1 <0>        -0.0467
     12 N1         -3.5109    6.4216   -0.1674 N.am      1 <0>        -0.1681
     13 C10        -2.6428    5.3969   -0.0708 C.2       1 <0>         0.3605
     14 O3         -2.9217    4.2147   -0.0039 O.2       1 <0>        -0.3288
     15 C11        -1.2889    5.9826   -0.0581 C.2       1 <0>        -0.2950
     16 C12        -0.0860    5.3135    0.0309 C.2       1 <0>         0.1014
     17 C13        -0.0672    3.8745    0.2942 C.ar      1 <0>        -0.1382
     18 C14        -0.9477    3.3164    1.2325 C.ar      1 <0>        -0.0366
     19 C15        -0.9273    1.9611    1.4694 C.ar      1 <0>        -0.1456
     20 C16        -0.0327    1.1447    0.7937 C.ar      1 <0>        -0.0854
     21 C17         0.8408    1.6783   -0.1332 C.ar      1 <0>        -0.1667
     22 C18         0.8341    3.0401   -0.3923 C.ar      1 <0>         0.1079
     23 O4          1.6911    3.5651   -1.3025 O.3       1 <0>        -0.2927
     24 C19        -1.4999    7.4393   -0.1678 C.2       1 <0>         0.3595
     25 O5         -0.6373    8.2965   -0.1976 O.2       1 <0>        -0.3266
     26 N2         -2.8304    7.6374   -0.2287 N.am      1 <0>        -0.2851
     27 H1        -11.1611    2.5636   -1.0571 H         1 <0>         0.0862
     28 H2        -11.2226    2.6876    0.7175 H         1 <0>         0.0860
     29 H3        -12.6651    3.0717   -0.2520 H         1 <0>         0.0899
     30 H4        -11.5452    5.1394    0.5349 H         1 <0>         0.0898
     31 H5        -11.4838    5.0153   -1.2397 H         1 <0>         0.0898
     32 H6         -7.6964    8.1623   -0.4366 H         1 <0>         0.1603
     33 H7         -5.2522    8.3959   -0.3671 H         1 <0>         0.1334
     34 H8         -4.8442    4.1453   -0.0636 H         1 <0>         0.1865
     35 H9         -7.2876    3.9006   -0.1237 H         1 <0>         0.1566
     36 H10         0.8419    5.8518   -0.0937 H         1 <0>         0.1702
     37 H11        -1.6432    3.9484    1.7646 H         1 <0>         0.1466
     38 H12        -1.6089    1.5313    2.1885 H         1 <0>         0.1384
     39 H13        -0.0222    0.0828    0.9906 H         1 <0>         0.1352
     40 H14         1.5303    1.0333   -0.6577 H         1 <0>         0.1444
     41 H15         1.3396    3.5934   -2.2030 H         1 <0>         0.2359
     42 H16        -3.2564    8.5055   -0.3047 H         1 <0>         0.2759
@<TRIPOS>BOND
     1    1    2 1
     2    1   27 1
     3    1   28 1
     4    1   29 1
     5    2    3 1
     6    2   30 1
     7    2   31 1
     8    3    4 1
     9    4    5 2
    10    4    6 1
    11    6   11 ar
    12    6    7 ar
    13    7    8 ar
    14    7   32 1
    15    8    9 ar
    16    8   33 1
    17    9   10 ar
    18    9   12 1
    19   10   11 ar
    20   10   34 1
    21   11   35 1
    22   12   26 1
    23   12   13 am
    24   13   14 2
    25   13   15 1
    26   15   16 2
    27   15   24 1
    28   16   17 1
    29   16   36 1
    30   17   22 ar
    31   17   18 ar
    32   18   19 ar
    33   18   37 1
    34   19   20 ar
    35   19   38 1
    36   20   21 ar
    37   20   39 1
    38   21   22 ar
    39   21   40 1
    40   22   23 1
    41   23   41 1
    42   24   25 2
    43   24   26 am
    44   26   42 1
@<TRIPOS>MOLECULE
ZINC03853725
   40    42     0     0     0
SMALL
USER_CHARGES

@<TRIPOS>ATOM
      1 C1          2.7948   -8.8820   -0.5212 C.3       1 <0>        -0.1723
      2 C2          1.9189   -7.6579   -0.4496 C.ar      1 <0>        -0.0966
      3 C3          0.5434   -7.7895   -0.5056 C.ar      1 <0>        -0.0995
      4 C4         -0.2622   -6.6696   -0.4402 C.ar      1 <0>        -0.1690
      5 C5          0.3106   -5.4102   -0.3186 C.ar      1 <0>         0.0753
      6 C6          1.6926   -5.2810   -0.2684 C.ar      1 <0>        -0.1534
      7 C7          2.4923   -6.4053   -0.3285 C.ar      1 <0>        -0.0990
      8 N1         -0.5023   -4.2741   -0.2526 N.am      1 <0>        -0.1692
      9 C8         -0.0477   -3.0122   -0.1346 C.2       1 <0>         0.3580
     10 O1          1.1163   -2.6643   -0.0686 O.2       1 <0>        -0.3329
     11 C9         -1.2314   -2.1321   -0.1013 C.2       1 <0>        -0.2865
     12 C10        -1.2521   -0.7577    0.0104 C.2       1 <0>         0.0941
     13 C11        -0.0022    0.0004   -0.0532 C.ar      1 <0>        -0.1004
     14 C12         0.9891   -0.3488   -0.9832 C.ar      1 <0>        -0.0750
     15 C13         2.1624    0.3674   -1.0380 C.ar      1 <0>        -0.1074
     16 C14         2.3739    1.4348   -0.1783 C.ar      1 <0>        -0.1845
     17 C15         1.4071    1.7942    0.7453 C.ar      1 <0>         0.0601
     18 C16         0.2138    1.0828    0.8168 C.ar      1 <0>         0.0769
     19 O2         -0.7381    1.4352    1.7172 O.3       1 <0>        -0.2771
     20 O3          1.6244    2.8430    1.5835 O.3       1 <0>        -0.2008
     21 C17         2.8716    3.5285    1.4551 C.3       1 <0>        -0.0647
     22 C18        -2.3888   -3.0418   -0.2068 C.2       1 <0>         0.3578
     23 O4         -3.5629   -2.7233   -0.2122 O.2       1 <0>        -0.3307
     24 N2         -1.8961   -4.2914   -0.2994 N.am      1 <0>        -0.2835
     25 H1          3.0397   -9.0932   -1.5622 H         1 <0>         0.0865
     26 H2          3.7128   -8.7053    0.0393 H         1 <0>         0.0827
     27 H3          2.2656   -9.7331   -0.0926 H         1 <0>         0.0814
     28 H4          0.0987   -8.7691   -0.6002 H         1 <0>         0.1349
     29 H5         -1.3363   -6.7732   -0.4833 H         1 <0>         0.1258
     30 H6          2.1411   -4.3027   -0.1782 H         1 <0>         0.1810
     31 H7          3.5668   -6.3060   -0.2850 H         1 <0>         0.1384
     32 H8         -2.1908   -0.2408    0.1449 H         1 <0>         0.1708
     33 H9          0.8312   -1.1795   -1.6551 H         1 <0>         0.1482
     34 H10         2.9235    0.0964   -1.7546 H         1 <0>         0.1379
     35 H11         3.2988    1.9901   -0.2302 H         1 <0>         0.1393
     36 H12        -0.6560    0.9892    2.5713 H         1 <0>         0.2320
     37 H13         3.6896    2.8321    1.6392 H         1 <0>         0.0671
     38 H14         2.9605    3.9353    0.4477 H         1 <0>         0.0690
     39 H15         2.9159    4.3410    2.1803 H         1 <0>         0.1112
     40 H16        -2.4358   -5.0931   -0.3828 H         1 <0>         0.2743
@<TRIPOS>BOND
     1    1    2 1
     2    1   25 1
     3    1   26 1
     4    1   27 1
     5    2    7 ar
     6    2    3 ar
     7    3    4 ar
     8    3   28 1
     9    4    5 ar
    10    4   29 1
    11    5    6 ar
    12    5    8 1
    13    6    7 ar
    14    6   30 1
    15    7   31 1
    16    8   24 1
    17    8    9 am
    18    9   10 2
    19    9   11 1
    20   11   12 2
    21   11   22 1
    22   12   13 1
    23   12   32 1
    24   13   18 ar
    25   13   14 ar
    26   14   15 ar
    27   14   33 1
    28   15   16 ar
    29   15   34 1
    30   16   17 ar
    31   16   35 1
    32   17   18 ar
    33   17   20 1
    34   18   19 1
    35   19   36 1
    36   20   21 1
    37   21   37 1
    38   21   38 1
    39   21   39 1
    40   22   23 2
    41   22   24 am
    42   24   40 1
@<TRIPOS>MOLECULE
ZINC03854077
   41    43     0     0     0
SMALL
USER_CHARGES

@<TRIPOS>ATOM
      1 C1          3.3534   11.5841    2.7459 C.3       1 <0>        -0.1751
      2 C2          3.7951   10.1855    2.3995 C.ar      1 <0>        -0.0577
      3 C3          3.5085    9.1402    3.2598 C.ar      1 <0>        -0.1328
      4 C4          3.9093    7.8569    2.9502 C.ar      1 <0>        -0.1063
      5 C5          4.6062    7.6130    1.7648 C.ar      1 <0>        -0.0383
      6 C6          4.8975    8.6746    0.9018 C.ar      1 <0>         0.0938
      7 C7          4.4854    9.9532    1.2231 C.ar      1 <0>        -0.1568
      8 F1          5.5756    8.4492   -0.2447 F         1 <0>        -0.0999
      9 N1          5.0069    6.3429    1.4519 N.2       1 <0>        -0.1875
     10 C8          4.2170    5.5577    0.7537 C.2       1 <0>         0.1788
     11 C9          4.5724    4.1446    0.5128 C.2       1 <0>        -0.1553
     12 C10         3.5375    3.2621    0.2955 C.2       1 <0>         0.0002
     13 C11         2.1770    3.8033    0.3202 C.ar      1 <0>        -0.1080
     14 C12         1.0532    2.9700    0.3738 C.ar      1 <0>        -0.0906
     15 C13        -0.1968    3.5529    0.4061 C.ar      1 <0>        -0.0357
     16 N2         -0.3405    4.8652    0.3812 N.ar      1 <0>        -0.1327
     17 C14         0.6851    5.6906    0.3237 C.ar      1 <0>         0.0040
     18 C15         1.9815    5.1970    0.2864 C.ar      1 <0>         0.0393
     19 O1          3.0515    6.0239    0.2218 O.3       1 <0>        -0.1480
     20 C16         0.4488    7.1787    0.2979 C.3       1 <0>        -0.1631
     21 C17         1.2057    1.4710    0.4018 C.3       1 <0>         0.0387
     22 O2         -0.0855    0.8619    0.4623 O.3       1 <0>        -0.3549
     23 C18         5.9772    3.6970    0.5057 C.2       1 <0>         0.3646
     24 O3          6.2415    2.5271    0.3051 O.2       1 <0>        -0.3834
     25 N3          6.9683    4.5844    0.7216 N.am      1 <0>        -0.4107
     26 H1          4.1360   12.0807    3.3193 H         1 <0>         0.0909
     27 H2          3.1643   12.1429    1.8293 H         1 <0>         0.0849
     28 H3          2.4403   11.5402    3.3395 H         1 <0>         0.0845
     29 H4          2.9699    9.3296    4.1765 H         1 <0>         0.1377
     30 H5          3.6848    7.0428    3.6234 H         1 <0>         0.1447
     31 H6          4.7056   10.7739    0.5564 H         1 <0>         0.1480
     32 H7          3.7219    2.2134    0.1146 H         1 <0>         0.1765
     33 H8         -1.0738    2.9243    0.4522 H         1 <0>         0.1914
     34 H9          0.3833    7.5540    1.3191 H         1 <0>         0.0972
     35 H10         1.2751    7.6689   -0.2171 H         1 <0>         0.0988
     36 H11        -0.4828    7.3896   -0.2272 H         1 <0>         0.1024
     37 H12         1.7856    1.1811    1.2780 H         1 <0>         0.0796
     38 H13         1.7211    1.1413   -0.5003 H         1 <0>         0.0795
     39 H14        -0.0639   -0.1046    0.4831 H         1 <0>         0.2229
     40 H15         6.7575    5.5176    0.8817 H         1 <0>         0.2480
     41 H16         7.8925    4.2899    0.7170 H         1 <0>         0.2303
@<TRIPOS>BOND
     1    1    2 1
     2    1   26 1
     3    1   27 1
     4    1   28 1
     5    2    7 ar
     6    2    3 ar
     7    3    4 ar
     8    3   29 1
     9    4    5 ar
    10    4   30 1
    11    5    6 ar
    12    5    9 1
    13    6    7 ar
    14    6    8 1
    15    7   31 1
    16    9   10 2
    17   10   19 1
    18   10   11 1
    19   11   12 2
    20   11   23 1
    21   12   13 1
    22   12   32 1
    23   13   18 ar
    24   13   14 ar
    25   14   15 ar
    26   14   21 1
    27   15   16 ar
    28   15   33 1
    29   16   17 ar
    30   17   18 ar
    31   17   20 1
    32   18   19 1
    33   20   34 1
    34   20   35 1
    35   20   36 1
    36   21   22 1
    37   21   37 1
    38   21   38 1
    39   22   39 1
    40   23   24 2
    41   23   25 am
    42   25   40 1
    43   25   41 1
@<TRIPOS>MOLECULE
ZINC03854082
   44    46     0     0     0
SMALL
USER_CHARGES

@<TRIPOS>ATOM
      1 C1          6.3656    3.3162   -3.2337 C.3       1 <0>        -0.2073
      2 C2          5.7550    2.1756   -2.4170 C.3       1 <0>        -0.1239
      3 C3          4.9306    2.7481   -1.2928 C.ar      1 <0>        -0.0603
      4 C4          5.5184    3.0026   -0.0659 C.ar      1 <0>        -0.1370
      5 C5          4.7692    3.5277    0.9720 C.ar      1 <0>        -0.1239
      6 C6          3.4307    3.8063    0.7887 C.ar      1 <0>        -0.1662
      7 C7          2.8294    3.5470   -0.4452 C.ar      1 <0>         0.0059
      8 C8          3.5923    3.0166   -1.4889 C.ar      1 <0>        -0.0749
      9 N1          1.5019    3.8162   -0.6326 N.2       1 <0>        -0.1452
     10 C9          0.5949    3.1690    0.0656 C.2       1 <0>         0.1666
     11 C10         0.9702    2.0254    0.9211 C.2       1 <0>        -0.1791
     12 C11         0.1637    1.7572    2.0052 C.2       1 <0>        -0.0530
     13 C12        -0.9989    2.6242    2.2078 C.ar      1 <0>        -0.1009
     14 C13        -1.7239    2.6150    3.4068 C.ar      1 <0>        -0.1000
     15 C14        -2.8026    3.4663    3.5290 C.ar      1 <0>        -0.0352
     16 N2         -3.1477    4.2786    2.5469 N.ar      1 <0>        -0.1331
     17 C15        -2.4950    4.3269    1.4032 C.ar      1 <0>         0.0088
     18 C16        -1.3968    3.5063    1.1870 C.ar      1 <0>         0.0462
     19 O1         -0.7121    3.5346    0.0196 O.3       1 <0>        -0.1008
     20 C17        -2.9432    5.2788    0.3243 C.3       1 <0>        -0.1643
     21 C18        -1.3385    1.6924    4.5343 C.3       1 <0>         0.0423
     22 O2         -2.2376    1.8772    5.6296 O.3       1 <0>        -0.3515
     23 C19         2.1587    1.2040    0.6267 C.2       1 <0>         0.3554
     24 O3          2.4580    0.9589   -0.5261 O.2       1 <0>        -0.3427
     25 N3          2.9134    0.7250    1.6354 N.am      1 <0>        -0.4207
     26 H1          5.5687    3.9350   -3.6461 H         1 <0>         0.0801
     27 H2          7.0014    3.9242   -2.5900 H         1 <0>         0.0750
     28 H3          6.9619    2.9022   -4.0468 H         1 <0>         0.0720
     29 H4          6.5519    1.5569   -2.0045 H         1 <0>         0.0838
     30 H5          5.1192    1.5677   -3.0607 H         1 <0>         0.0944
     31 H6          6.5670    2.7906    0.0818 H         1 <0>         0.1275
     32 H7          5.2345    3.7238    1.9267 H         1 <0>         0.1259
     33 H8          2.8481    4.2203    1.5984 H         1 <0>         0.1299
     34 H9          3.1348    2.8172   -2.4467 H         1 <0>         0.1510
     35 H10         0.3777    0.9382    2.6759 H         1 <0>         0.1449
     36 H11        -3.3755    3.4680    4.4445 H         1 <0>         0.1899
     37 H12        -3.6692    4.7824   -0.3196 H         1 <0>         0.0994
     38 H13        -3.4022    6.1556    0.7811 H         1 <0>         0.1014
     39 H14        -2.0822    5.5870   -0.2689 H         1 <0>         0.1035
     40 H15        -1.3906    0.6588    4.1920 H         1 <0>         0.0738
     41 H16        -0.3220    1.9176    4.8568 H         1 <0>         0.0708
     42 H17        -2.0490    1.3140    6.3927 H         1 <0>         0.2208
     43 H18         2.6363    0.8603    2.5551 H         1 <0>         0.2122
     44 H19         3.7337    0.2449    1.4416 H         1 <0>         0.2386
@<TRIPOS>BOND
     1    1    2 1
     2    1   26 1
     3    1   27 1
     4    1   28 1
     5    2    3 1
     6    2   29 1
     7    2   30 1
     8    3    8 ar
     9    3    4 ar
    10    4    5 ar
    11    4   31 1
    12    5    6 ar
    13    5   32 1
    14    6    7 ar
    15    6   33 1
    16    7    8 ar
    17    7    9 1
    18    8   34 1
    19    9   10 2
    20   10   19 1
    21   10   11 1
    22   11   12 2
    23   11   23 1
    24   12   13 1
    25   12   35 1
    26   13   18 ar
    27   13   14 ar
    28   14   15 ar
    29   14   21 1
    30   15   16 ar
    31   15   36 1
    32   16   17 ar
    33   17   18 ar
    34   17   20 1
    35   18   19 1
    36   20   37 1
    37   20   38 1
    38   20   39 1
    39   21   22 1
    40   21   40 1
    41   21   41 1
    42   22   42 1
    43   23   24 2
    44   23   25 am
    45   25   43 1
    46   25   44 1
@<TRIPOS>MOLECULE
ZINC03854083
   44    46     0     0     0
SMALL
USER_CHARGES

@<TRIPOS>ATOM
      1 C1          3.9587   10.2831    5.0336 C.3       1 <0>        -0.2063
      2 C2          3.0008    9.9446    3.8896 C.3       1 <0>        -0.1256
      3 C3          3.7907    9.4731    2.6960 C.ar      1 <0>        -0.0613
      4 C4          4.2276   10.3867    1.7526 C.ar      1 <0>        -0.1348
      5 C5          4.9542    9.9630    0.6541 C.ar      1 <0>        -0.1127
      6 C6          5.2525    8.6257    0.4942 C.ar      1 <0>        -0.1400
      7 C7          4.8099    7.6971    1.4393 C.ar      1 <0>         0.0030
      8 C8          4.0769    8.1324    2.5465 C.ar      1 <0>        -0.1306
      9 N1          5.0973    6.3692    1.2846 N.2       1 <0>        -0.1911
     10 C9          4.3161    5.6088    0.5494 C.2       1 <0>         0.1708
     11 C10         4.6691    4.2016    0.2734 C.2       1 <0>        -0.1577
     12 C11         3.6340    3.3311    0.0123 C.2       1 <0>         0.0019
     13 C12         2.2759    3.8784    0.0291 C.ar      1 <0>        -0.1097
     14 C13         1.1474    3.0499    0.0388 C.ar      1 <0>        -0.0903
     15 C14        -0.1001    3.6383    0.0666 C.ar      1 <0>        -0.0367
     16 N2         -0.2371    4.9515    0.0781 N.ar      1 <0>        -0.1323
     17 C15         0.7932    5.7728    0.0627 C.ar      1 <0>         0.0037
     18 C16         2.0878    5.2736    0.0329 C.ar      1 <0>         0.0421
     19 O1          3.1627    6.0962    0.0112 O.3       1 <0>        -0.1482
     20 C17         0.5645    7.2622    0.0769 C.3       1 <0>        -0.1629
     21 C18         1.2921    1.5500    0.0255 C.3       1 <0>         0.0388
     22 O2         -0.0029    0.9462    0.0458 O.3       1 <0>        -0.3548
     23 C19         6.0718    3.7474    0.2768 C.2       1 <0>         0.3651
     24 O3          6.3343    2.5827    0.0458 O.2       1 <0>        -0.3827
     25 N3          7.0631    4.6230    0.5358 N.am      1 <0>        -0.4130
     26 H1          3.3873   10.6242    5.8970 H         1 <0>         0.0738
     27 H2          4.5302    9.3952    5.3039 H         1 <0>         0.0791
     28 H3          4.6409   11.0713    4.7151 H         1 <0>         0.0775
     29 H4          2.4293   10.8325    3.6194 H         1 <0>         0.0877
     30 H5          2.3186    9.1564    4.2082 H         1 <0>         0.0875
     31 H6          4.0006   11.4355    1.8748 H         1 <0>         0.1310
     32 H7          5.2922   10.6816   -0.0779 H         1 <0>         0.1321
     33 H8          5.8236    8.2970   -0.3614 H         1 <0>         0.1347
     34 H9          3.7357    7.4206    3.2836 H         1 <0>         0.1392
     35 H10         3.8167    2.2872   -0.1960 H         1 <0>         0.1755
     36 H11        -0.9808    3.0133    0.0787 H         1 <0>         0.1911
     37 H12         0.5301    7.6147    1.1077 H         1 <0>         0.0981
     38 H13         1.3785    7.7599   -0.4503 H         1 <0>         0.0992
     39 H14        -0.3804    7.4895   -0.4166 H         1 <0>         0.1018
     40 H15         1.8552    1.2315    0.9028 H         1 <0>         0.0797
     41 H16         1.8215    1.2440   -0.8768 H         1 <0>         0.0789
     42 H17         0.0137   -0.0206    0.0386 H         1 <0>         0.2226
     43 H18         6.8537    5.5520    0.7201 H         1 <0>         0.2458
     44 H19         7.9859    4.3241    0.5381 H         1 <0>         0.2300
@<TRIPOS>BOND
     1    1    2 1
     2    1   26 1
     3    1   27 1
     4    1   28 1
     5    2    3 1
     6    2   29 1
     7    2   30 1
     8    3    8 ar
     9    3    4 ar
    10    4    5 ar
    11    4   31 1
    12    5    6 ar
    13    5   32 1
    14    6    7 ar
    15    6   33 1
    16    7    8 ar
    17    7    9 1
    18    8   34 1
    19    9   10 2
    20   10   19 1
    21   10   11 1
    22   11   12 2
    23   11   23 1
    24   12   13 1
    25   12   35 1
    26   13   18 ar
    27   13   14 ar
    28   14   15 ar
    29   14   21 1
    30   15   16 ar
    31   15   36 1
    32   16   17 ar
    33   17   18 ar
    34   17   20 1
    35   18   19 1
    36   20   37 1
    37   20   38 1
    38   20   39 1
    39   21   22 1
    40   21   40 1
    41   21   41 1
    42   22   42 1
    43   23   24 2
    44   23   25 am
    45   25   43 1
    46   25   44 1
@<TRIPOS>MOLECULE
ZINC03854084
   44    46     0     0     0
SMALL
USER_CHARGES

@<TRIPOS>ATOM
      1 C1         10.6906    5.2754    3.7253 C.3       1 <0>        -0.2056
      2 C2          9.9229    4.1455    3.0361 C.3       1 <0>        -0.1244
      3 C3          8.6433    4.6893    2.4548 C.ar      1 <0>        -0.0840
      4 C4          8.6283    5.1782    1.1603 C.ar      1 <0>        -0.1174
      5 C5          7.4608    5.6773    0.6216 C.ar      1 <0>        -0.0821
      6 C6          6.2916    5.6886    1.3863 C.ar      1 <0>        -0.0163
      7 C7          6.3156    5.1986    2.6945 C.ar      1 <0>        -0.1459
      8 C8          7.4891    4.6976    3.2181 C.ar      1 <0>        -0.1280
      9 N1          5.1304    6.1819    0.8588 N.2       1 <0>        -0.1471
     10 C9          4.1986    5.3571    0.4341 C.2       1 <0>         0.1701
     11 C10         4.4418    3.9015    0.3801 C.2       1 <0>        -0.1833
     12 C11         3.3447    3.0745    0.4798 C.2       1 <0>        -0.0496
     13 C12         2.0358    3.7131    0.6325 C.ar      1 <0>        -0.1011
     14 C13         0.8976    2.9832    0.9957 C.ar      1 <0>        -0.0996
     15 C14        -0.3021    3.6532    1.1177 C.ar      1 <0>        -0.0351
     16 N2         -0.3862    4.9519    0.8947 N.ar      1 <0>        -0.1334
     17 C15         0.6544    5.6809    0.5453 C.ar      1 <0>         0.0087
     18 C16         1.9034    5.0945    0.3959 C.ar      1 <0>         0.0458
     19 O1          2.9868    5.8208    0.0337 O.3       1 <0>        -0.1010
     20 C17         0.4872    7.1594    0.3061 C.3       1 <0>        -0.1637
     21 C18         0.9823    1.5008    1.2534 C.3       1 <0>         0.0422
     22 O2         -0.3094    1.0049    1.6108 O.3       1 <0>        -0.3517
     23 C19         5.8028    3.3558    0.2255 C.2       1 <0>         0.3564
     24 O3          6.5443    3.8042   -0.6276 O.2       1 <0>        -0.3456
     25 N3          6.2250    2.3602    1.0298 N.am      1 <0>        -0.4175
     26 H1         11.6161    4.8821    4.1458 H         1 <0>         0.0715
     27 H2         10.9236    6.0529    2.9977 H         1 <0>         0.0797
     28 H3         10.0789    5.6962    4.5233 H         1 <0>         0.0777
     29 H4          9.6899    3.3681    3.7637 H         1 <0>         0.0813
     30 H5         10.5346    3.7247    2.2381 H         1 <0>         0.0860
     31 H6          9.5328    5.1685    0.5703 H         1 <0>         0.1355
     32 H7          7.4506    6.0589   -0.3887 H         1 <0>         0.1554
     33 H8          5.4166    5.2086    3.2929 H         1 <0>         0.1329
     34 H9          7.5083    4.3148    4.2278 H         1 <0>         0.1284
     35 H10         3.4465    1.9997    0.4502 H         1 <0>         0.1480
     36 H11        -1.1887    3.1055    1.4012 H         1 <0>         0.1899
     37 H12         0.6511    7.6991    1.2388 H         1 <0>         0.1002
     38 H13         1.2115    7.4912   -0.4378 H         1 <0>         0.1021
     39 H14        -0.5218    7.3571   -0.0556 H         1 <0>         0.1012
     40 H15         1.6817    1.3131    2.0681 H         1 <0>         0.0710
     41 H16         1.3294    0.9946    0.3527 H         1 <0>         0.0745
     42 H17        -0.3299    0.0551    1.7913 H         1 <0>         0.2208
     43 H18         5.6617    2.0521    1.7569 H         1 <0>         0.2158
     44 H19         7.0922    1.9516    0.8815 H         1 <0>         0.2374
@<TRIPOS>BOND
     1    1    2 1
     2    1   26 1
     3    1   27 1
     4    1   28 1
     5    2    3 1
     6    2   29 1
     7    2   30 1
     8    3    8 ar
     9    3    4 ar
    10    4    5 ar
    11    4   31 1
    12    5    6 ar
    13    5   32 1
    14    6    7 ar
    15    6    9 1
    16    7    8 ar
    17    7   33 1
    18    8   34 1
    19    9   10 2
    20   10   19 1
    21   10   11 1
    22   11   12 2
    23   11   23 1
    24   12   13 1
    25   12   35 1
    26   13   18 ar
    27   13   14 ar
    28   14   15 ar
    29   14   21 1
    30   15   16 ar
    31   15   36 1
    32   16   17 ar
    33   17   18 ar
    34   17   20 1
    35   18   19 1
    36   20   37 1
    37   20   38 1
    38   20   39 1
    39   21   22 1
    40   21   40 1
    41   21   41 1
    42   22   42 1
    43   23   24 2
    44   23   25 am
    45   25   43 1
    46   25   44 1
@<TRIPOS>MOLECULE
ZINC03854085
   44    46     0     0     0
SMALL
USER_CHARGES

@<TRIPOS>ATOM
      1 C1          5.0300   12.5241    2.7222 C.3       1 <0>        -0.2062
      2 C2          3.9120   11.8504    1.9239 C.3       1 <0>        -0.1250
      3 C3          4.2284   10.3869    1.7532 C.ar      1 <0>        -0.0810
      4 C4          3.7914    9.4734    2.6963 C.ar      1 <0>        -0.1149
      5 C5          4.0772    8.1324    2.5466 C.ar      1 <0>        -0.1293
      6 C6          4.8098    7.6972    1.4394 C.ar      1 <0>        -0.0047
      7 C7          5.2523    8.6259    0.4940 C.ar      1 <0>        -0.1324
      8 C8          4.9541    9.9630    0.6538 C.ar      1 <0>        -0.1133
      9 N1          5.0973    6.3693    1.2847 N.2       1 <0>        -0.1907
     10 C9          4.3161    5.6088    0.5497 C.2       1 <0>         0.1701
     11 C10         4.6691    4.2016    0.2737 C.2       1 <0>        -0.1576
     12 C11         3.6341    3.3311    0.0124 C.2       1 <0>         0.0019
     13 C12         2.2760    3.8785    0.0290 C.ar      1 <0>        -0.1097
     14 C13         1.1474    3.0500    0.0386 C.ar      1 <0>        -0.0903
     15 C14        -0.1001    3.6383    0.0663 C.ar      1 <0>        -0.0367
     16 N2         -0.2370    4.9516    0.0779 N.ar      1 <0>        -0.1323
     17 C15         0.7933    5.7728    0.0625 C.ar      1 <0>         0.0036
     18 C16         2.0879    5.2736    0.0332 C.ar      1 <0>         0.0422
     19 O1          3.1627    6.0962    0.0119 O.3       1 <0>        -0.1484
     20 C17         0.5646    7.2623    0.0772 C.3       1 <0>        -0.1628
     21 C18         1.2921    1.5500    0.0253 C.3       1 <0>         0.0388
     22 O2         -0.0029    0.9463    0.0455 O.3       1 <0>        -0.3548
     23 C19         6.0717    3.7472    0.2783 C.2       1 <0>         0.3651
     24 O3          6.3341    2.5823    0.0481 O.2       1 <0>        -0.3827
     25 N3          7.0630    4.6227    0.5375 N.am      1 <0>        -0.4130
     26 H1          5.9738   12.4163    2.1877 H         1 <0>         0.0773
     27 H2          4.8011   13.5826    2.8457 H         1 <0>         0.0734
     28 H3          5.1114   12.0533    3.7019 H         1 <0>         0.0777
     29 H4          3.8306   12.3212    0.9442 H         1 <0>         0.0869
     30 H5          2.9682   11.9581    2.4584 H         1 <0>         0.0868
     31 H6          3.2255    9.8113    3.5518 H         1 <0>         0.1331
     32 H7          3.7352    7.4205    3.2832 H         1 <0>         0.1383
     33 H8          5.8230    8.2971   -0.3619 H         1 <0>         0.1351
     34 H9          5.2916   10.6815   -0.0785 H         1 <0>         0.1332
     35 H10         3.8168    2.2874   -0.1966 H         1 <0>         0.1755
     36 H11        -0.9808    3.0133    0.0784 H         1 <0>         0.1911
     37 H12         0.5304    7.6145    1.1082 H         1 <0>         0.0981
     38 H13         1.3785    7.7601   -0.4500 H         1 <0>         0.0990
     39 H14        -0.3805    7.4897   -0.4160 H         1 <0>         0.1017
     40 H15         1.8552    1.2315    0.9026 H         1 <0>         0.0798
     41 H16         1.8216    1.2441   -0.8770 H         1 <0>         0.0788
     42 H17         0.0137   -0.0205    0.0384 H         1 <0>         0.2226
     43 H18         6.8536    5.5519    0.7211 H         1 <0>         0.2458
     44 H19         7.9857    4.3237    0.5405 H         1 <0>         0.2299
@<TRIPOS>BOND
     1    1    2 1
     2    1   26 1
     3    1   27 1
     4    1   28 1
     5    2    3 1
     6    2   29 1
     7    2   30 1
     8    3    8 ar
     9    3    4 ar
    10    4    5 ar
    11    4   31 1
    12    5    6 ar
    13    5   32 1
    14    6    7 ar
    15    6    9 1
    16    7    8 ar
    17    7   33 1
    18    8   34 1
    19    9   10 2
    20   10   19 1
    21   10   11 1
    22   11   12 2
    23   11   23 1
    24   12   13 1
    25   12   35 1
    26   13   18 ar
    27   13   14 ar
    28   14   15 ar
    29   14   21 1
    30   15   16 ar
    31   15   36 1
    32   16   17 ar
    33   17   18 ar
    34   17   20 1
    35   18   19 1
    36   20   37 1
    37   20   38 1
    38   20   39 1
    39   21   22 1
    40   21   40 1
    41   21   41 1
    42   22   42 1
    43   23   24 2
    44   23   25 am
    45   25   43 1
    46   25   44 1
@<TRIPOS>MOLECULE
ZINC03854086
   38    40     0     0     0
SMALL
USER_CHARGES

@<TRIPOS>ATOM
      1 C1          0.5720    7.2681    0.0551 C.3       1 <0>        -0.1631
      2 C2          0.7987    5.7783    0.0419 C.ar      1 <0>         0.0055
      3 C3          2.0926    5.2774    0.0190 C.ar      1 <0>         0.0424
      4 C4          2.2789    3.8821    0.0152 C.ar      1 <0>        -0.1088
      5 C5          3.6364    3.3328    0.0045 C.2       1 <0>         0.0061
      6 C6          4.6715    4.2016    0.2708 C.2       1 <0>        -0.1591
      7 C7          4.3193    5.6093    0.5457 C.2       1 <0>         0.1811
      8 N1          5.0979    6.3681    1.2846 N.2       1 <0>        -0.1900
      9 C8          4.8106    7.6965    1.4399 C.ar      1 <0>        -0.0303
     10 C9          5.2529    8.6253    0.4953 C.ar      1 <0>        -0.1136
     11 C10         4.9547    9.9627    0.6551 C.ar      1 <0>        -0.1304
     12 C11         4.2289   10.3876    1.7541 C.ar      1 <0>        -0.1126
     13 C12         3.7916    9.4752    2.6979 C.ar      1 <0>        -0.1559
     14 C13         4.0774    8.1321    2.5486 C.ar      1 <0>         0.0914
     15 F1          3.6504    7.2420    3.4709 F         1 <0>        -0.0975
     16 O1          3.1687    6.0987    0.0031 O.3       1 <0>        -0.1510
     17 C14         6.0734    3.7450    0.2815 C.2       1 <0>         0.3657
     18 O2          6.3351    2.5799    0.0520 O.2       1 <0>        -0.3815
     19 N2          7.0648    4.6190    0.5455 N.am      1 <0>        -0.4130
     20 C15         1.1493    3.0551    0.0192 C.ar      1 <0>        -0.0893
     21 C16        -0.0976    3.6450    0.0408 C.ar      1 <0>        -0.0352
     22 N3         -0.2329    4.9584    0.0518 N.ar      1 <0>        -0.1313
     23 C17         1.2922    1.5549    0.0066 C.3       1 <0>         0.0386
     24 O3         -0.0037    0.9529    0.0204 O.3       1 <0>        -0.3547
     25 H1          0.5325    7.6205    1.0858 H         1 <0>         0.0995
     26 H2          1.3895    7.7646   -0.4676 H         1 <0>         0.0965
     27 H3         -0.3700    7.4967   -0.4434 H         1 <0>         0.1023
     28 H4          3.8185    2.2887   -0.2034 H         1 <0>         0.1762
     29 H5          5.8236    8.2967   -0.3606 H         1 <0>         0.1420
     30 H6          5.2926   10.6809   -0.0773 H         1 <0>         0.1368
     31 H7          4.0030   11.4366    1.8758 H         1 <0>         0.1371
     32 H8          3.2259    9.8140    3.5533 H         1 <0>         0.1474
     33 H9          6.8560    5.5485    0.7285 H         1 <0>         0.2448
     34 H10         7.9870    4.3187    0.5525 H         1 <0>         0.2304
     35 H11        -0.9792    3.0212    0.0486 H         1 <0>         0.1916
     36 H12         1.8505    1.2357    0.8866 H         1 <0>         0.0807
     37 H13         1.8256    1.2483   -0.8931 H         1 <0>         0.0784
     38 H14         0.0116   -0.0140    0.0134 H         1 <0>         0.2229
@<TRIPOS>BOND
     1    1    2 1
     2    1   25 1
     3    1   26 1
     4    1   27 1
     5    2   22 ar
     6    2    3 ar
     7    3   16 1
     8    3    4 ar
     9    4    5 1
    10    4   20 ar
    11    5    6 2
    12    5   28 1
    13    6    7 1
    14    6   17 1
    15    7    8 2
    16    7   16 1
    17    8    9 1
    18    9   14 ar
    19    9   10 ar
    20   10   11 ar
    21   10   29 1
    22   11   12 ar
    23   11   30 1
    24   12   13 ar
    25   12   31 1
    26   13   14 ar
    27   13   32 1
    28   14   15 1
    29   17   18 2
    30   17   19 am
    31   19   33 1
    32   19   34 1
    33   20   21 ar
    34   20   23 1
    35   21   22 ar
    36   21   35 1
    37   23   24 1
    38   23   36 1
    39   23   37 1
    40   24   38 1
@<TRIPOS>MOLECULE
ZINC03854221
   42    45     0     0     0
SMALL
USER_CHARGES

@<TRIPOS>ATOM
      1 C1        -10.5528   -6.0667    0.7485 C.ar      1 <0>        -0.0946
      2 C2        -11.1108   -6.0240   -0.5202 C.ar      1 <0>        -0.1830
      3 C3        -11.0387   -4.8519   -1.2485 C.ar      1 <0>        -0.0447
      4 N1        -10.4525   -3.7817   -0.7481 N.ar      1 <0>        -0.1517
      5 C4         -9.9069   -3.7874    0.4523 C.ar      1 <0>        -0.0263
      6 C5         -9.9405   -4.9236    1.2388 C.ar      1 <0>        -0.1692
      7 C6         -9.2444   -2.5389    0.9752 C.3       1 <0>         0.0479
      8 N2         -7.8589   -2.4865    0.5021 N.am      1 <0>        -0.3668
      9 C7         -7.0677   -1.4515    0.8473 C.2       1 <0>         0.4086
     10 O1         -7.5041   -0.5606    1.5520 O.2       1 <0>        -0.4118
     11 C8         -5.6794   -1.3990    0.3733 C.2       1 <0>        -0.3087
     12 C9         -4.7573   -0.3991    0.6574 C.2       1 <0>         0.1791
     13 N3         -3.6071   -0.7476    0.0170 N.pl3     1 <0>        -0.1448
     14 N4         -3.8594   -1.9621   -0.6354 N.2       1 <0>        -0.0213
     15 N5         -5.0755   -2.3140   -0.4077 N.2       1 <0>        -0.0353
     16 C10        -2.4001   -0.0318    0.0157 C.ar      1 <0>         0.0682
     17 C11        -2.4159    1.3563    0.0255 C.ar      1 <0>        -0.1612
     18 C12        -1.2284    2.0614    0.0190 C.ar      1 <0>        -0.1055
     19 C13        -0.0168    1.3858    0.0097 C.ar      1 <0>         0.0182
     20 C14         0.0021   -0.0041    0.0020 C.ar      1 <0>         0.0364
     21 C15        -1.1904   -0.7111    0.0041 C.ar      1 <0>        -0.1121
     22 O2          1.1808   -0.6848   -0.0065 O.3       1 <0>        -0.1976
     23 C16         2.3472    0.0532   -0.3870 C.3       1 <0>        -0.0523
     24 C17         2.3350    1.3912    0.3647 C.3       1 <0>        -0.0534
     25 O3          1.1438    2.0980    0.0024 O.3       1 <0>        -0.2013
     26 N6         -4.9662    0.7240    1.4313 N.pl3     1 <0>        -0.3762
     27 H1        -10.5938   -6.9690    1.3405 H         1 <0>         0.1393
     28 H2        -11.5961   -6.8958   -0.9338 H         1 <0>         0.1390
     29 H3        -11.4708   -4.8106   -2.2374 H         1 <0>         0.1622
     30 H4         -9.4958   -4.9208    2.2230 H         1 <0>         0.1429
     31 H5         -9.2560   -2.5507    2.0651 H         1 <0>         0.0975
     32 H6         -9.7846   -1.6631    0.6156 H         1 <0>         0.1149
     33 H7         -7.5110   -3.1967   -0.0596 H         1 <0>         0.2441
     34 H8         -3.3575    1.8851    0.0354 H         1 <0>         0.1449
     35 H9         -1.2431    3.1413    0.0271 H         1 <0>         0.1539
     36 H10        -1.1777   -1.7910   -0.0037 H         1 <0>         0.1723
     37 H11         3.2417   -0.5099   -0.1207 H         1 <0>         0.1265
     38 H12         2.3333    0.2344   -1.4617 H         1 <0>         0.0988
     39 H13         2.3420    1.2092    1.4394 H         1 <0>         0.0966
     40 H14         3.2100    1.9780    0.0850 H         1 <0>         0.1259
     41 H15        -4.2482    1.3628    1.5629 H         1 <0>         0.2276
     42 H16        -5.8312    0.8748    1.8437 H         1 <0>         0.2731
@<TRIPOS>BOND
     1    1    6 ar
     2    1    2 ar
     3    1   27 1
     4    2    3 ar
     5    2   28 1
     6    3    4 ar
     7    3   29 1
     8    4    5 ar
     9    5    6 ar
    10    5    7 1
    11    6   30 1
    12    7    8 1
    13    7   31 1
    14    7   32 1
    15    8    9 am
    16    8   33 1
    17    9   10 2
    18    9   11 1
    19   11   15 1
    20   11   12 2
    21   12   13 1
    22   12   26 1
    23   13   14 1
    24   13   16 1
    25   14   15 2
    26   16   21 ar
    27   16   17 ar
    28   17   18 ar
    29   17   34 1
    30   18   19 ar
    31   18   35 1
    32   19   25 1
    33   19   20 ar
    34   20   21 ar
    35   20   22 1
    36   21   36 1
    37   22   23 1
    38   23   24 1
    39   23   37 1
    40   23   38 1
    41   24   25 1
    42   24   39 1
    43   24   40 1
    44   26   41 1
    45   26   42 1
@<TRIPOS>MOLECULE
ZINC03854412
   43    44     0     0     0
SMALL
USER_CHARGES

@<TRIPOS>ATOM
      1 C1          6.2903    7.3031    0.8468 C.3       1 <0>        -0.1478
      2 C2          7.2609    6.1706    0.6313 C.2       1 <0>         0.0524
      3 C3          6.9326    4.8539    0.4919 C.2       1 <0>        -0.2410
      4 C4          8.2080    4.1448    0.3131 C.2       1 <0>        -0.2099
      5 C5          9.1625    5.0871    0.3518 C.2       1 <0>        -0.0911
      6 O1          8.5897    6.2854    0.5448 O.3       1 <0>        -0.0570
      7 C6          5.5821    4.2646    0.5208 C.2       1 <0>         0.3839
      8 O2          4.6054    4.9856    0.5921 O.2       1 <0>        -0.3658
      9 N1          5.4294    2.9265    0.4682 N.am      1 <0>        -0.2912
     10 N2          4.1459    2.3704    0.3892 N.pl3     1 <0>        -0.2133
     11 C7          3.9844    1.0143    0.4409 C.2       1 <0>         0.1452
     12 C8          2.7639    0.4724    0.2474 C.2       1 <0>        -0.4101
     13 C9          1.6332    1.3093    0.1063 C.2       1 <0>         0.3799
     14 O3          1.7731    2.5178    0.0525 O.2       1 <0>        -0.4228
     15 N3          0.4005    0.7696    0.0314 N.am      1 <0>        -0.3057
     16 C10        -0.7188    1.5952   -0.0175 C.ar      1 <0>         0.1362
     17 C11        -0.6625    2.8080   -0.6918 C.ar      1 <0>        -0.1419
     18 C12        -1.7753    3.6226   -0.7435 C.ar      1 <0>        -0.0859
     19 C13        -2.9515    3.2440   -0.1162 C.ar      1 <0>        -0.1624
     20 C14        -3.0243    2.0470    0.5624 C.ar      1 <0>        -0.0879
     21 C15        -1.9079    1.2091    0.6190 C.ar      1 <0>        -0.1797
     22 C16        -1.9789   -0.0733    1.3441 C.2       1 <0>         0.3613
     23 O4         -0.9791   -0.7523    1.4777 O.2       1 <0>        -0.3923
     24 N4         -3.1519   -0.4926    1.8585 N.am      1 <0>        -0.4260
     25 C17         5.1693    0.1241    0.7139 C.3       1 <0>        -0.1988
     26 H1          6.1339    7.4491    1.9156 H         1 <0>         0.1048
     27 H2          6.6951    8.2164    0.4108 H         1 <0>         0.0897
     28 H3          5.3401    7.0629    0.3700 H         1 <0>         0.1399
     29 H4          8.3479    3.0827    0.1757 H         1 <0>         0.1533
     30 H5         10.2227    4.9091    0.2490 H         1 <0>         0.2012
     31 H6          6.2082    2.3485    0.4851 H         1 <0>         0.2452
     32 H7          3.3720    2.9479    0.2977 H         1 <0>         0.3288
     33 H8          2.6507   -0.6006    0.2004 H         1 <0>         0.1465
     34 H9          0.2936   -0.1942    0.0075 H         1 <0>         0.2634
     35 H10         0.2518    3.1122   -1.1795 H         1 <0>         0.1738
     36 H11        -1.7279    4.5630   -1.2726 H         1 <0>         0.1351
     37 H12        -3.8155    3.8907   -0.1591 H         1 <0>         0.1301
     38 H13        -3.9432    1.7571    1.0501 H         1 <0>         0.1219
     39 H14        -3.9495    0.0490    1.7519 H         1 <0>         0.2179
     40 H15        -3.1986   -1.3361    2.3354 H         1 <0>         0.2299
     41 H16         5.6418   -0.1512   -0.2290 H         1 <0>         0.0974
     42 H17         5.8871    0.6561    1.3383 H         1 <0>         0.0836
     43 H18         4.8361   -0.7763    1.2299 H         1 <0>         0.1093
@<TRIPOS>BOND
     1    1    2 1
     2    1   26 1
     3    1   27 1
     4    1   28 1
     5    2    6 1
     6    2    3 2
     7    3    4 1
     8    3    7 1
     9    4    5 2
    10    4   29 1
    11    5    6 1
    12    5   30 1
    13    7    8 2
    14    7    9 am
    15    9   10 1
    16    9   31 1
    17   10   11 1
    18   10   32 1
    19   11   12 2
    20   11   25 1
    21   12   13 1
    22   12   33 1
    23   13   14 2
    24   13   15 am
    25   15   16 1
    26   15   34 1
    27   16   21 ar
    28   16   17 ar
    29   17   18 ar
    30   17   35 1
    31   18   19 ar
    32   18   36 1
    33   19   20 ar
    34   19   37 1
    35   20   21 ar
    36   20   38 1
    37   21   22 1
    38   22   23 2
    39   22   24 am
    40   24   39 1
    41   24   40 1
    42   25   41 1
    43   25   42 1
    44   25   43 1
@<TRIPOS>MOLECULE
ZINC03854526
   40    42     0     0     0
SMALL
USER_CHARGES

@<TRIPOS>ATOM
      1 C1         -1.9342    0.8859    2.2246 C.3       1 <0>        -0.0625
      2 O1         -2.1464    1.8675    1.2080 O.3       1 <0>        -0.1835
      3 C2         -1.0958    2.1476    0.3912 C.ar      1 <0>        -0.0250
      4 C3          0.1072    1.4932    0.5656 C.ar      1 <0>        -0.1526
      5 C4          1.1857    1.7806   -0.2814 C.ar      1 <0>        -0.2382
      6 C5          1.0380    2.7345   -1.2970 C.ar      1 <0>         0.0150
      7 C6         -0.1646    3.3855   -1.4593 C.ar      1 <0>        -0.2728
      8 C7         -1.2327    3.0995   -0.6189 C.ar      1 <0>         0.2486
      9 N1         -0.3194    4.3928   -2.5330 N.pl3     1 <0>         0.5757
     10 O2          0.6160    4.6447   -3.2712 O.2       1 <0>        -0.4502
     11 O3         -1.3823    4.9696   -2.6781 O.3       1 <0>        -0.3504
     12 C8          2.4648    1.0850   -0.1059 C.2       1 <0>         0.0782
     13 C9          3.6345    1.7827   -0.1688 C.2       1 <0>        -0.2416
     14 C10         3.8073    3.2558   -0.1365 C.2       1 <0>         0.0844
     15 C11         2.8432    4.1760   -0.0393 C.2       1 <0>        -0.3104
     16 N2          5.1815    3.4858   -0.2283 N.pl3     1 <0>        -0.3005
     17 H1          5.6025    4.3597   -0.2321 H         1 <0>         0.2662
     18 N3          5.8573    2.2683   -0.3138 N.am      1 <0>        -0.1605
     19 C12         4.9990    1.2344   -0.2770 C.2       1 <0>         0.3659
     20 O4          5.2953    0.0554   -0.3270 O.2       1 <0>        -0.3717
     21 C13         7.2459    2.1401   -0.4168 C.ar      1 <0>         0.1046
     22 C14         7.8250    0.8798   -0.4905 C.ar      1 <0>        -0.1678
     23 C15         9.1964    0.7568   -0.5980 C.ar      1 <0>        -0.1027
     24 C16         9.9937    1.8865   -0.6212 C.ar      1 <0>        -0.1732
     25 C17         9.4208    3.1426   -0.5419 C.ar      1 <0>        -0.1036
     26 C18         8.0497    3.2727   -0.4400 C.ar      1 <0>        -0.1837
     27 H2         -1.6616   -0.0629    1.7623 H         1 <0>         0.0531
     28 H3         -1.1300    1.2132    2.8835 H         1 <0>         0.0537
     29 H4         -2.8490    0.7585    2.8033 H         1 <0>         0.0876
     30 H5          0.2153    0.7585    1.3498 H         1 <0>         0.1139
     31 H6          1.8666    2.9588   -1.9523 H         1 <0>         0.1482
     32 H7          2.4802    0.0201    0.0732 H         1 <0>         0.1326
     33 H8          1.8226    3.8720    0.1404 H         1 <0>         0.1756
     34 H9          3.0847    5.2238   -0.1404 H         1 <0>         0.1090
     35 H10         7.2032   -0.0030   -0.4679 H         1 <0>         0.1864
     36 H11         9.6469   -0.2227   -0.6601 H         1 <0>         0.1268
     37 H12        11.0661    1.7875   -0.7012 H         1 <0>         0.1193
     38 H13        10.0463    4.0228   -0.5599 H         1 <0>         0.1223
     39 H14         7.6028    4.2540   -0.3788 H         1 <0>         0.1257
     40 O5         -2.4160    3.7452   -0.7845 O.3       1 <0>        -0.4417
@<TRIPOS>BOND
     1    1    2 1
     2    1   27 1
     3    1   28 1
     4    1   29 1
     5    2    3 1
     6    3    8 ar
     7    3    4 ar
     8    4    5 ar
     9    4   30 1
    10    5    6 ar
    11    5   12 1
    12    6    7 ar
    13    6   31 1
    14    7    8 ar
    15    7    9 1
    16    8   40 1
    17    9   10 2
    18    9   11 1
    19   12   13 2
    20   12   32 1
    21   13   19 1
    22   13   14 1
    23   14   15 2
    24   14   16 1
    25   15   33 1
    26   15   34 1
    27   16   17 1
    28   16   18 1
    29   18   19 am
    30   18   21 1
    31   19   20 2
    32   21   26 ar
    33   21   22 ar
    34   22   23 ar
    35   22   35 1
    36   23   24 ar
    37   23   36 1
    38   24   25 ar
    39   24   37 1
    40   25   26 ar
    41   25   38 1
    42   26   39 1
@<TRIPOS>MOLECULE
ZINC03854527
   40    42     0     0     0
SMALL
USER_CHARGES

@<TRIPOS>ATOM
      1 C1          0.4162    5.2960    1.6643 C.3       1 <0>        -0.0616
      2 O1         -0.5624    4.7957    0.7511 O.3       1 <0>        -0.1844
      3 C2         -0.2762    3.6260    0.1190 C.ar      1 <0>        -0.0272
      4 C3          0.9164    2.9786    0.3728 C.ar      1 <0>        -0.1488
      5 C4          1.2076    1.7737   -0.2804 C.ar      1 <0>        -0.2370
      6 C5          0.2864    1.2335   -1.1874 C.ar      1 <0>         0.0527
      7 C6         -0.8978    1.8900   -1.4379 C.ar      1 <0>        -0.2643
      8 C7         -1.1874    3.0815   -0.7857 C.ar      1 <0>         0.2536
      9 N1         -1.8673    1.3215   -2.4013 N.pl3     1 <0>         0.5775
     10 O2         -1.6170    0.2745   -2.9711 O.2       1 <0>        -0.4481
     11 O3         -2.9153    1.9007   -2.6243 O.3       1 <0>        -0.3558
     12 C8          2.4724    1.0802   -0.0153 C.2       1 <0>         0.0896
     13 C9          2.4971   -0.2797    0.0805 C.2       1 <0>        -0.2682
     14 C10         3.6914   -1.1536    0.1840 C.2       1 <0>         0.1251
     15 C11         4.9705   -0.7674    0.2033 C.2       1 <0>        -0.3693
     16 N2          3.2080   -2.4615    0.2581 N.pl3     1 <0>        -0.2914
     17 H1          3.7582   -3.2569    0.3327 H         1 <0>         0.2641
     18 N3          1.8139   -2.4511    0.2077 N.am      1 <0>        -0.1696
     19 C12         1.3423   -1.1961    0.1098 C.2       1 <0>         0.3631
     20 O4          0.1705   -0.8737    0.0520 O.2       1 <0>        -0.3193
     21 C13         1.0120   -3.5955    0.2590 C.ar      1 <0>         0.1026
     22 C14        -0.3711   -3.4791    0.2079 C.ar      1 <0>        -0.1560
     23 C15        -1.1600   -4.6117    0.2544 C.ar      1 <0>        -0.0967
     24 C16        -0.5747   -5.8599    0.3619 C.ar      1 <0>        -0.1726
     25 C17         0.8019   -5.9790    0.4178 C.ar      1 <0>        -0.1080
     26 C18         1.5967   -4.8507    0.3669 C.ar      1 <0>        -0.1912
     27 H2          0.0637    6.2318    2.0979 H         1 <0>         0.0859
     28 H3          0.5793    4.5666    2.4577 H         1 <0>         0.0537
     29 H4          1.3522    5.4712    1.1338 H         1 <0>         0.0502
     30 H5          1.6230    3.3998    1.0726 H         1 <0>         0.1088
     31 H6          0.5070    0.3050   -1.6930 H         1 <0>         0.1460
     32 H7          3.3841    1.6466    0.1040 H         1 <0>         0.1204
     33 H8          5.2189    0.2818    0.1395 H         1 <0>         0.1291
     34 H9          5.7560   -1.5044    0.2826 H         1 <0>         0.1039
     35 H10        -0.8290   -2.5042    0.1281 H         1 <0>         0.1976
     36 H11        -2.2355   -4.5221    0.2114 H         1 <0>         0.1342
     37 H12        -1.1941   -6.7438    0.4026 H         1 <0>         0.1189
     38 H13         1.2559   -6.9553    0.5017 H         1 <0>         0.1182
     39 H14         2.6717   -4.9444    0.4113 H         1 <0>         0.1173
     40 O5         -2.3596    3.7213   -1.0335 O.3       1 <0>        -0.4433
@<TRIPOS>BOND
     1    1    2 1
     2    1   27 1
     3    1   28 1
     4    1   29 1
     5    2    3 1
     6    3    8 ar
     7    3    4 ar
     8    4    5 ar
     9    4   30 1
    10    5    6 ar
    11    5   12 1
    12    6    7 ar
    13    6   31 1
    14    7    8 ar
    15    7    9 1
    16    8   40 1
    17    9   10 2
    18    9   11 1
    19   12   13 2
    20   12   32 1
    21   13   19 1
    22   13   14 1
    23   14   15 2
    24   14   16 1
    25   15   33 1
    26   15   34 1
    27   16   17 1
    28   16   18 1
    29   18   19 am
    30   18   21 1
    31   19   20 2
    32   21   26 ar
    33   21   22 ar
    34   22   23 ar
    35   22   35 1
    36   23   24 ar
    37   23   36 1
    38   24   25 ar
    39   24   37 1
    40   25   26 ar
    41   25   38 1
    42   26   39 1
@<TRIPOS>MOLECULE
ZINC03854640
   40    42     0     0     0
SMALL
USER_CHARGES

@<TRIPOS>ATOM
      1 C1          2.3595    1.2733   -1.8160 C.3       1 <0>        -0.1690
      2 C2          1.0708    1.9674   -1.4575 C.ar      1 <0>        -0.1182
      3 C3         -0.1220    1.2682   -1.4911 C.ar      1 <0>        -0.0958
      4 C4         -1.3053    1.9027   -1.1686 C.ar      1 <0>        -0.1629
      5 C5         -1.2953    3.2418   -0.7992 C.ar      1 <0>         0.1022
      6 C6         -0.0959    3.9411   -0.7669 C.ar      1 <0>        -0.1848
      7 C7          1.0835    3.3019   -1.0961 C.ar      1 <0>        -0.0506
      8 C8          2.3854    4.0601   -1.0618 C.3       1 <0>        -0.1743
      9 N1         -2.4912    3.8859   -0.4664 N.am      1 <0>        -0.1797
     10 C9         -3.7039    3.3009   -0.4715 C.2       1 <0>         0.3705
     11 O1         -3.9497    2.1447   -0.7597 O.2       1 <0>        -0.3372
     12 C10        -4.6772    4.3299   -0.0583 C.2       1 <0>        -0.3785
     13 C11        -6.0418    4.1860    0.0814 C.2       1 <0>         0.1958
     14 C12        -6.6529    2.8614   -0.0298 C.ar      1 <0>        -0.2714
     15 C13        -6.0344    1.7467    0.5549 C.ar      1 <0>         0.0352
     16 C14        -6.6195    0.5056    0.4507 C.ar      1 <0>        -0.2848
     17 C15        -7.8118    0.3483   -0.2399 C.ar      1 <0>         0.0085
     18 C16        -8.4305    1.4346   -0.8267 C.ar      1 <0>        -0.2553
     19 C17        -7.8625    2.6954   -0.7292 C.ar      1 <0>         0.2662
     20 N2         -9.7028    1.2524   -1.5609 N.pl3     1 <0>         0.5702
     21 O2        -10.2029    0.1451   -1.6473 O.2       1 <0>        -0.4565
     22 O3        -10.2497    2.2097   -2.0785 O.3       1 <0>        -0.3449
     23 C18        -3.8751    5.5481    0.1672 C.2       1 <0>         0.3681
     24 O4         -4.2920    6.6359    0.5176 O.2       1 <0>        -0.3677
     25 N3         -2.5935    5.2247   -0.0892 N.am      1 <0>        -0.2956
     26 H1          2.5409    1.3739   -2.8861 H         1 <0>         0.0785
     27 H2          3.1825    1.7271   -1.2638 H         1 <0>         0.0757
     28 H3          2.2873    0.2168   -1.5575 H         1 <0>         0.0751
     29 H4         -0.1286    0.2260   -1.7741 H         1 <0>         0.1314
     30 H5         -2.2370    1.3574   -1.1997 H         1 <0>         0.1903
     31 H6         -0.0854    4.9836   -0.4850 H         1 <0>         0.1238
     32 H7          2.5694    4.5105   -2.0372 H         1 <0>         0.0823
     33 H8          2.3305    4.8424   -0.3049 H         1 <0>         0.0760
     34 H9          3.1982    3.3756   -0.8186 H         1 <0>         0.0805
     35 H10        -6.6592    5.0512    0.2729 H         1 <0>         0.1580
     36 H11        -5.1033    1.8629    1.0897 H         1 <0>         0.1182
     37 H12        -6.1453   -0.3515    0.9056 H         1 <0>         0.1143
     38 H13        -8.2601   -0.6310   -0.3191 H         1 <0>         0.1296
     39 H14        -1.8449    5.8377   -0.0206 H         1 <0>         0.2552
     40 O5         -8.4695    3.7629   -1.3042 O.3       1 <0>        -0.4783
@<TRIPOS>BOND
     1    1    2 1
     2    1   26 1
     3    1   27 1
     4    1   28 1
     5    2    7 ar
     6    2    3 ar
     7    3    4 ar
     8    3   29 1
     9    4    5 ar
    10    4   30 1
    11    5    6 ar
    12    5    9 1
    13    6    7 ar
    14    6   31 1
    15    7    8 1
    16    8   32 1
    17    8   33 1
    18    8   34 1
    19    9   25 1
    20    9   10 am
    21   10   11 2
    22   10   12 1
    23   12   13 2
    24   12   23 1
    25   13   14 1
    26   13   35 1
    27   14   19 ar
    28   14   15 ar
    29   15   16 ar
    30   15   36 1
    31   16   17 ar
    32   16   37 1
    33   17   18 ar
    34   17   38 1
    35   18   19 ar
    36   18   20 1
    37   19   40 1
    38   20   21 2
    39   20   22 1
    40   23   24 2
    41   23   25 am
    42   25   39 1
@<TRIPOS>MOLECULE
ZINC03854735
   40    42     0     0     0
SMALL
USER_CHARGES

@<TRIPOS>ATOM
      1 C1         -2.4713    0.0919    0.1312 C.3       1 <0>        -0.2107
      2 C2         -1.2947   -0.0012   -0.8424 C.3       1 <0>        -0.0184
      3 O1         -1.3197    1.1196   -1.7285 O.3       1 <0>        -0.2016
      4 C3         -0.3347    1.1896   -2.6635 C.ar      1 <0>         0.0608
      5 C4          0.6291    0.2045   -2.7244 C.ar      1 <0>        -0.1766
      6 C5          1.6432    0.2800   -3.6906 C.ar      1 <0>        -0.0843
      7 C6          1.6705    1.3572   -4.5886 C.ar      1 <0>        -0.0692
      8 C7          0.7043    2.3343   -4.5191 C.ar      1 <0>        -0.1307
      9 C8         -0.3028    2.2549   -3.5645 C.ar      1 <0>         0.0728
     10 O2         -1.2557    3.2196   -3.5049 O.3       1 <0>        -0.2753
     11 C9          2.6696   -0.7611   -3.7610 C.2       1 <0>         0.0854
     12 C10         3.1228   -1.2007   -4.9871 C.2       1 <0>        -0.2825
     13 C11         2.5875   -0.8557   -6.3186 C.2       1 <0>         0.3535
     14 O3          1.6488   -0.1186   -6.5537 O.2       1 <0>        -0.3284
     15 N1          3.3377   -1.5129   -7.2232 N.am      1 <0>        -0.2821
     16 N2          4.3262   -2.2644   -6.5881 N.am      1 <0>        -0.1705
     17 C12         4.2519   -2.1128   -5.2523 C.2       1 <0>         0.3623
     18 O4          4.9750   -2.6314   -4.4226 O.2       1 <0>        -0.3320
     19 C13         5.2688   -3.0593   -7.2478 C.ar      1 <0>         0.0818
     20 C14         6.2171   -3.7646   -6.5183 C.ar      1 <0>        -0.1563
     21 C15         7.1439   -4.5522   -7.1727 C.ar      1 <0>        -0.0980
     22 C16         7.1344   -4.6314   -8.5532 C.ar      1 <0>        -0.1506
     23 C17         6.1949   -3.9262   -9.2828 C.ar      1 <0>        -0.0991
     24 C18         5.2623   -3.1406   -8.6344 C.ar      1 <0>        -0.1735
     25 H1         -2.3932    1.0133    0.7084 H         1 <0>         0.0876
     26 H2         -3.4067    0.0919   -0.4284 H         1 <0>         0.0922
     27 H3         -2.4522   -0.7630    0.8071 H         1 <0>         0.0866
     28 H4         -1.3728   -0.9225   -1.4196 H         1 <0>         0.0761
     29 H5         -0.3593   -0.0012   -0.2828 H         1 <0>         0.0701
     30 H6          0.6031   -0.6223   -2.0300 H         1 <0>         0.1407
     31 H7          2.4496    1.4197   -5.3340 H         1 <0>         0.1495
     32 H8          0.7261    3.1633   -5.2110 H         1 <0>         0.1504
     33 H9         -1.0302    3.9600   -2.9251 H         1 <0>         0.2276
     34 H10         3.0719   -1.1851   -2.8529 H         1 <0>         0.1566
     35 H11         3.2083   -1.4699   -8.1836 H         1 <0>         0.2742
     36 H12         6.2274   -3.7002   -5.4402 H         1 <0>         0.1819
     37 H13         7.8792   -5.1039   -6.6057 H         1 <0>         0.1382
     38 H14         7.8626   -5.2450   -9.0627 H         1 <0>         0.1326
     39 H15         6.1902   -3.9902  -10.3609 H         1 <0>         0.1339
     40 H16         4.5286   -2.5905   -9.2048 H         1 <0>         0.1253
@<TRIPOS>BOND
     1    1    2 1
     2    1   25 1
     3    1   26 1
     4    1   27 1
     5    2    3 1
     6    2   28 1
     7    2   29 1
     8    3    4 1
     9    4    9 ar
    10    4    5 ar
    11    5    6 ar
    12    5   30 1
    13    6    7 ar
    14    6   11 1
    15    7    8 ar
    16    7   31 1
    17    8    9 ar
    18    8   32 1
    19    9   10 1
    20   10   33 1
    21   11   12 2
    22   11   34 1
    23   12   17 1
    24   12   13 1
    25   13   14 2
    26   13   15 am
    27   15   16 1
    28   15   35 1
    29   16   17 am
    30   16   19 1
    31   17   18 2
    32   19   24 ar
    33   19   20 ar
    34   20   21 ar
    35   20   36 1
    36   21   22 ar
    37   21   37 1
    38   22   23 ar
    39   22   38 1
    40   23   24 ar
    41   23   39 1
    42   24   40 1
@<TRIPOS>MOLECULE
ZINC03854736
   40    42     0     0     0
SMALL
USER_CHARGES

@<TRIPOS>ATOM
      1 C1          7.6915   -9.1608    1.7488 C.3       1 <0>        -0.2107
      2 C2          6.6102   -8.1854    1.2795 C.3       1 <0>        -0.0184
      3 O1          7.2258   -7.0502    0.6675 O.3       1 <0>        -0.2016
      4 C3          6.3990   -6.0807    0.1923 C.ar      1 <0>         0.0608
      5 C4          5.0321   -6.2181    0.3179 C.ar      1 <0>        -0.1761
      6 C5          4.1824   -5.2185   -0.1786 C.ar      1 <0>        -0.0855
      7 C6          4.7289   -4.0804   -0.7898 C.ar      1 <0>        -0.0697
      8 C7          6.0939   -3.9510   -0.9051 C.ar      1 <0>        -0.1316
      9 C8          6.9340   -4.9450   -0.4172 C.ar      1 <0>         0.0731
     10 O2          8.2796   -4.8103   -0.5335 O.3       1 <0>        -0.2778
     11 C9          2.7309   -5.3598   -0.0541 C.2       1 <0>         0.0878
     12 C10         1.9525   -4.2572    0.2293 C.2       1 <0>        -0.2847
     13 C11         0.4790   -4.1729    0.2230 C.2       1 <0>         0.3579
     14 O3         -0.2975   -5.0729   -0.0356 O.2       1 <0>        -0.3328
     15 N1          0.1588   -2.9102    0.5638 N.am      1 <0>        -0.2828
     16 N2          1.3100   -2.1546    0.7850 N.am      1 <0>        -0.1695
     17 C12         2.4124   -2.9062    0.6036 C.2       1 <0>         0.3594
     18 O4          3.5666   -2.5411    0.7251 O.2       1 <0>        -0.3314
     19 C13         1.3182   -0.8048    1.1506 C.ar      1 <0>         0.0811
     20 C14         0.1205   -0.1202    1.3119 C.ar      1 <0>        -0.1730
     21 C15         0.1320    1.2129    1.6726 C.ar      1 <0>        -0.0988
     22 C16         1.3343    1.8661    1.8730 C.ar      1 <0>        -0.1503
     23 C17         2.5285    1.1874    1.7131 C.ar      1 <0>        -0.0982
     24 C18         2.5240   -0.1457    1.3526 C.ar      1 <0>        -0.1572
     25 H1          8.2837   -9.4858    0.8933 H         1 <0>         0.0914
     26 H2          8.3392   -8.6649    2.4717 H         1 <0>         0.0884
     27 H3          7.2219  -10.0266    2.2156 H         1 <0>         0.0867
     28 H4          6.0180   -7.8604    2.1349 H         1 <0>         0.0723
     29 H5          5.9625   -8.6813    0.5566 H         1 <0>         0.0741
     30 H6          4.6172   -7.0944    0.7938 H         1 <0>         0.1411
     31 H7          4.0787   -3.3063   -1.1699 H         1 <0>         0.1500
     32 H8          6.5137   -3.0743   -1.3758 H         1 <0>         0.1504
     33 H9          8.6965   -4.3640    0.2162 H         1 <0>         0.2305
     34 H10         2.2694   -6.3276   -0.1842 H         1 <0>         0.1588
     35 H11        -0.7470   -2.5721    0.6419 H         1 <0>         0.2747
     36 H12        -0.8188   -0.6297    1.1553 H         1 <0>         0.1257
     37 H13        -0.7988    1.7470    1.7938 H         1 <0>         0.1342
     38 H14         1.3406    2.9087    2.1546 H         1 <0>         0.1328
     39 H15         3.4658    1.7006    1.8699 H         1 <0>         0.1380
     40 H16         3.4569   -0.6753    1.2282 H         1 <0>         0.1809
@<TRIPOS>BOND
     1    1    2 1
     2    1   25 1
     3    1   26 1
     4    1   27 1
     5    2    3 1
     6    2   28 1
     7    2   29 1
     8    3    4 1
     9    4    9 ar
    10    4    5 ar
    11    5    6 ar
    12    5   30 1
    13    6    7 ar
    14    6   11 1
    15    7    8 ar
    16    7   31 1
    17    8    9 ar
    18    8   32 1
    19    9   10 1
    20   10   33 1
    21   11   12 2
    22   11   34 1
    23   12   17 1
    24   12   13 1
    25   13   14 2
    26   13   15 am
    27   15   16 1
    28   15   35 1
    29   16   17 am
    30   16   19 1
    31   17   18 2
    32   19   24 ar
    33   19   20 ar
    34   20   21 ar
    35   20   36 1
    36   21   22 ar
    37   21   37 1
    38   22   23 ar
    39   22   38 1
    40   23   24 ar
    41   23   39 1
    42   24   40 1
@<TRIPOS>MOLECULE
ZINC03854935
   40    42     0     0     0
SMALL
USER_CHARGES

@<TRIPOS>ATOM
      1 C1          2.4124    1.2220   -1.4719 C.3       1 <0>        -0.1746
      2 C2          1.1141    1.9247   -1.1692 C.ar      1 <0>        -0.0958
      3 C3         -0.0793    1.2291   -1.2380 C.ar      1 <0>        -0.0947
      4 C4         -1.2712    1.8715   -0.9668 C.ar      1 <0>        -0.1574
      5 C5         -1.2698    3.2153   -0.6147 C.ar      1 <0>         0.0773
      6 C6         -0.0698    3.9108   -0.5466 C.ar      1 <0>        -0.1695
      7 C7          1.1186    3.2635   -0.8238 C.ar      1 <0>        -0.0463
      8 C8          2.4213    4.0175   -0.7501 C.3       1 <0>        -0.1775
      9 N1         -2.4747    3.8674   -0.3343 N.am      1 <0>        -0.1682
     10 C9         -3.6886    3.2865   -0.3771 C.2       1 <0>         0.3577
     11 O1         -3.9281    2.1277   -0.6599 O.2       1 <0>        -0.3289
     12 C10        -4.6725    4.3237   -0.0119 C.2       1 <0>        -0.2803
     13 C11        -6.0417    4.1861    0.0795 C.2       1 <0>         0.0837
     14 C12        -6.6531    2.8609   -0.0317 C.ar      1 <0>        -0.1072
     15 C13        -6.0323    1.7479    0.5542 C.ar      1 <0>        -0.0441
     16 C14        -6.6100    0.5037    0.4475 C.ar      1 <0>        -0.1525
     17 C15        -7.8081    0.3457   -0.2391 C.ar      1 <0>         0.0756
     18 C16        -8.4327    1.4475   -0.8252 C.ar      1 <0>         0.0307
     19 C17        -7.8649    2.7003   -0.7197 C.ar      1 <0>        -0.1056
     20 O2         -9.6051    1.2871   -1.4954 O.3       1 <0>        -0.2734
     21 O3         -8.3728   -0.8845   -0.3396 O.3       1 <0>        -0.2761
     22 C18        -3.8746    5.5419    0.2280 C.2       1 <0>         0.3573
     23 O4         -4.2999    6.6353    0.5497 O.2       1 <0>        -0.3335
     24 N2         -2.5856    5.2111    0.0226 N.am      1 <0>        -0.2821
     25 H1          2.6331    1.3089   -2.5358 H         1 <0>         0.0872
     26 H2          3.2163    1.6798   -0.8955 H         1 <0>         0.0839
     27 H3          2.3269    0.1691   -1.2035 H         1 <0>         0.0819
     28 H4         -0.0794    0.1835   -1.5085 H         1 <0>         0.1395
     29 H5         -2.2032    1.3287   -1.0247 H         1 <0>         0.1814
     30 H6         -0.0657    4.9567   -0.2775 H         1 <0>         0.1259
     31 H7          2.6433    4.4553   -1.7233 H         1 <0>         0.0896
     32 H8          2.3412    4.8093   -0.0053 H         1 <0>         0.0805
     33 H9          3.2217    3.3333   -0.4684 H         1 <0>         0.0889
     34 H10        -6.6628    5.0562    0.2332 H         1 <0>         0.1589
     35 H11        -5.1013    1.8674    1.0884 H         1 <0>         0.1511
     36 H12        -6.1312   -0.3527    0.8990 H         1 <0>         0.1493
     37 H13        -8.3501    3.5544   -1.1688 H         1 <0>         0.1460
     38 H14       -10.3915    1.3849   -0.9413 H         1 <0>         0.2207
     39 H15        -8.9840   -1.0966    0.3790 H         1 <0>         0.2260
     40 H16        -1.8378    5.8225    0.1111 H         1 <0>         0.2749
@<TRIPOS>BOND
     1    1    2 1
     2    1   25 1
     3    1   26 1
     4    1   27 1
     5    2    7 ar
     6    2    3 ar
     7    3    4 ar
     8    3   28 1
     9    4    5 ar
    10    4   29 1
    11    5    6 ar
    12    5    9 1
    13    6    7 ar
    14    6   30 1
    15    7    8 1
    16    8   31 1
    17    8   32 1
    18    8   33 1
    19    9   24 1
    20    9   10 am
    21   10   11 2
    22   10   12 1
    23   12   13 2
    24   12   22 1
    25   13   14 1
    26   13   34 1
    27   14   19 ar
    28   14   15 ar
    29   15   16 ar
    30   15   35 1
    31   16   17 ar
    32   16   36 1
    33   17   18 ar
    34   17   21 1
    35   18   19 ar
    36   18   20 1
    37   19   37 1
    38   20   38 1
    39   21   39 1
    40   22   23 2
    41   22   24 am
    42   24   40 1
@<TRIPOS>MOLECULE
ZINC03854968
   37    39     0     0     0
SMALL
USER_CHARGES

@<TRIPOS>ATOM
      1 C1         -3.7784   -7.5206    0.0017 C.3       1 <0>        -0.0624
      2 O1         -2.6197   -6.6843   -0.0061 O.3       1 <0>        -0.2096
      3 C2         -2.8279   -5.3413    0.0027 C.ar      1 <0>         0.0793
      4 C3         -4.1226   -4.8399    0.0191 C.ar      1 <0>        -0.1959
      5 C4         -4.3398   -3.4747    0.0287 C.ar      1 <0>        -0.1115
      6 C5         -3.2707   -2.6016    0.0273 C.ar      1 <0>        -0.1136
      7 C6         -1.9669   -3.0965    0.0055 C.ar      1 <0>        -0.0728
      8 C7         -1.7489   -4.4736   -0.0041 C.ar      1 <0>        -0.1031
      9 C8         -0.8175   -2.1621   -0.0012 C.2       1 <0>         0.3278
     10 O2          0.3211   -2.5967   -0.0151 O.2       1 <0>        -0.3663
     11 N1         -1.0290   -0.8422    0.0080 N.2       1 <0>        -0.3303
     12 C9          0.0021   -0.0041    0.0020 C.2       1 <0>         0.0515
     13 N2         -0.0164    1.3561    0.0095 N.pl3     1 <0>        -0.2419
     14 H1         -0.8632    1.8290    0.0161 H         1 <0>         0.2515
     15 C10         1.1703    2.0652    0.0020 C.ar      1 <0>         0.0828
     16 C11         1.3532    3.4571    0.0076 C.ar      1 <0>        -0.1623
     17 C12         2.6159    4.0001   -0.0016 C.ar      1 <0>         0.0016
     18 C13         3.7433    3.1958   -0.0167 C.ar      1 <0>        -0.7803
     19 C14         3.5923    1.8204   -0.0226 C.ar      1 <0>         0.0570
     20 C15         2.3298    1.2763   -0.0134 C.ar      1 <0>        -0.3285
     21 S1          1.6946   -0.3813   -0.0162 S.3       1 <0>         0.4403
     22 S2          5.3515    3.9158   -0.0288 S.o2      1 <0>         2.7661
     23 O3          5.2189    5.2154    0.5304 O.2       1 <0>        -0.9133
     24 O4          6.2364    2.9421    0.5080 O.2       1 <0>        -0.9113
     25 N3          5.7826    4.1244   -1.6140 N.pl3     1 <0>        -0.9309
     26 H2         -4.3645   -7.3210    0.8988 H         1 <0>         0.0674
     27 H3         -4.3829   -7.3121   -0.8810 H         1 <0>         0.0672
     28 H4         -3.4717   -8.5665   -0.0067 H         1 <0>         0.1094
     29 H5         -4.9626   -5.5186    0.0248 H         1 <0>         0.1350
     30 H6         -5.3489   -3.0902    0.0414 H         1 <0>         0.1324
     31 H7         -3.4438   -1.5357    0.0393 H         1 <0>         0.1503
     32 H8         -0.7413   -4.8623   -0.0165 H         1 <0>         0.1658
     33 H9          0.4919    4.1086    0.0194 H         1 <0>         0.1429
     34 H10         2.7311    5.0740    0.0035 H         1 <0>         0.1610
     35 H11         4.4607    1.1785   -0.0347 H         1 <0>         0.1679
     36 H12         5.1740    3.8589   -2.3211 H         1 <0>         0.2304
     37 H13         6.6438    4.5120   -1.8355 H         1 <0>         0.2463
@<TRIPOS>BOND
     1    1    2 1
     2    1   26 1
     3    1   27 1
     4    1   28 1
     5    2    3 1
     6    3    8 ar
     7    3    4 ar
     8    4    5 ar
     9    4   29 1
    10    5    6 ar
    11    5   30 1
    12    6    7 ar
    13    6   31 1
    14    7    8 ar
    15    7    9 1
    16    8   32 1
    17    9   10 2
    18    9   11 1
    19   11   12 2
    20   12   21 1
    21   12   13 1
    22   13   14 1
    23   13   15 1
    24   15   20 ar
    25   15   16 ar
    26   16   17 ar
    27   16   33 1
    28   17   18 ar
    29   17   34 1
    30   18   19 ar
    31   18   22 1
    32   19   20 ar
    33   19   35 1
    34   20   21 1
    35   22   23 2
    36   22   24 2
    37   22   25 1
    38   25   36 1
    39   25   37 1
@<TRIPOS>MOLECULE
ZINC03854969
   37    39     0     0     0
SMALL
USER_CHARGES

@<TRIPOS>ATOM
      1 C1         -0.0189   -6.9296   -0.0352 C.3       1 <0>        -0.0639
      2 O1          1.2453   -6.2635   -0.0431 O.3       1 <0>        -0.2087
      3 C2          1.2269   -4.9062   -0.0356 C.ar      1 <0>         0.1224
      4 C3          2.4218   -4.1968   -0.0426 C.ar      1 <0>        -0.1781
      5 C4          2.4068   -2.8193   -0.0350 C.ar      1 <0>        -0.0352
      6 C5          1.1894   -2.1361   -0.0203 C.ar      1 <0>        -0.1502
      7 C6         -0.0091   -2.8522   -0.0074 C.ar      1 <0>        -0.0338
      8 C7          0.0133   -4.2295   -0.0214 C.ar      1 <0>        -0.2444
      9 C8          1.1693   -0.6570   -0.0121 C.2       1 <0>         0.3318
     10 O2          2.2166   -0.0332   -0.0183 O.2       1 <0>        -0.3745
     11 N1          0.0021   -0.0041    0.0020 N.2       1 <0>        -0.3324
     12 C9         -0.0159    1.3242    0.0093 C.2       1 <0>         0.0513
     13 N2         -1.0946    2.1533    0.0181 N.pl3     1 <0>        -0.2431
     14 H1         -1.9908    1.7823    0.0192 H         1 <0>         0.2509
     15 C10        -0.9145    3.5241    0.0297 C.ar      1 <0>         0.0826
     16 C11        -1.8929    4.5307    0.0438 C.ar      1 <0>        -0.1626
     17 C12        -1.5356    5.8581    0.0469 C.ar      1 <0>         0.0042
     18 C13        -0.2055    6.2436    0.0362 C.ar      1 <0>        -0.7807
     19 C14         0.7797    5.2721    0.0223 C.ar      1 <0>         0.0528
     20 C15         0.4235    3.9442    0.0192 C.ar      1 <0>        -0.3277
     21 S1          1.3297    2.4180    0.0023 S.3       1 <0>         0.4371
     22 S2          0.2274    7.9516    0.0399 S.o2      1 <0>         2.7652
     23 O3         -0.8747    8.6487    0.6046 O.2       1 <0>        -0.9151
     24 O4          1.5396    8.0369    0.5785 O.2       1 <0>        -0.9081
     25 N3          0.3324    8.4335   -1.5410 N.pl3     1 <0>        -0.9281
     26 H2         -0.5717   -6.6491    0.8614 H         1 <0>         0.0700
     27 H3         -0.5879   -6.6395   -0.9185 H         1 <0>         0.0697
     28 H4          0.1385   -8.0081   -0.0425 H         1 <0>         0.1096
     29 H5          3.3632   -4.7259   -0.0537 H         1 <0>         0.1482
     30 H6          3.3358   -2.2686   -0.0402 H         1 <0>         0.1570
     31 H7         -0.9526   -2.3270    0.0089 H         1 <0>         0.1504
     32 H8         -0.9134   -4.7841   -0.0159 H         1 <0>         0.1369
     33 H9         -2.9381    4.2591    0.0526 H         1 <0>         0.1424
     34 H10        -2.3065    6.6144    0.0581 H         1 <0>         0.1603
     35 H11         1.8219    5.5551    0.0135 H         1 <0>         0.1661
     36 H12         0.1288    9.3504   -1.7831 H         1 <0>         0.2461
     37 H13         0.5975    7.7987   -2.2249 H         1 <0>         0.2317
@<TRIPOS>BOND
     1    1    2 1
     2    1   26 1
     3    1   27 1
     4    1   28 1
     5    2    3 1
     6    3    8 ar
     7    3    4 ar
     8    4    5 ar
     9    4   29 1
    10    5    6 ar
    11    5   30 1
    12    6    7 ar
    13    6    9 1
    14    7    8 ar
    15    7   31 1
    16    8   32 1
    17    9   10 2
    18    9   11 1
    19   11   12 2
    20   12   21 1
    21   12   13 1
    22   13   14 1
    23   13   15 1
    24   15   20 ar
    25   15   16 ar
    26   16   17 ar
    27   16   33 1
    28   17   18 ar
    29   17   34 1
    30   18   19 ar
    31   18   22 1
    32   19   20 ar
    33   19   35 1
    34   20   21 1
    35   22   23 2
    36   22   24 2
    37   22   25 1
    38   25   36 1
    39   25   37 1
@<TRIPOS>MOLECULE
ZINC03854986
   44    46     0     0     0
SMALL
USER_CHARGES

@<TRIPOS>ATOM
      1 C1          2.3487    7.8725    0.3689 C.3       1 <0>        -0.0642
      2 O1          3.4829    7.2010   -0.1832 O.3       1 <0>        -0.1967
      3 C2          3.5013    5.8459   -0.0931 C.ar      1 <0>         0.0865
      4 C3          2.4468    5.1781    0.5155 C.ar      1 <0>        -0.1967
      5 C4          2.4597    3.8040    0.6099 C.ar      1 <0>        -0.0493
      6 C5          3.5379    3.0775    0.0916 C.ar      1 <0>        -0.0748
      7 C6          4.6029    3.7519   -0.5169 C.ar      1 <0>        -0.1633
      8 C7          4.5793    5.1293   -0.6115 C.ar      1 <0>         0.0576
      9 O2          5.6101    5.7876   -1.2063 O.3       1 <0>        -0.1987
     10 C8          6.6814    4.9905   -1.7152 C.3       1 <0>        -0.0631
     11 C9          3.5547    1.6112    0.1913 C.2       1 <0>        -0.0163
     12 C10         2.4531    0.8999   -0.1308 C.2       1 <0>        -0.2427
     13 C11         1.3299    1.5547   -0.7994 C.2       1 <0>         0.3377
     14 O3          1.4358    2.7058   -1.1808 O.2       1 <0>        -0.3591
     15 N1          0.1772    0.8838   -0.9934 N.am      1 <0>        -0.3118
     16 C12        -0.9207    1.5333   -1.5487 C.ar      1 <0>         0.1253
     17 C13        -0.7393    2.5097   -2.5264 C.ar      1 <0>        -0.1197
     18 C14        -1.8262    3.1525   -3.0828 C.ar      1 <0>        -0.0990
     19 C15        -3.1148    2.8472   -2.6726 C.ar      1 <0>        -0.0950
     20 C16        -3.3174    1.8830   -1.6977 C.ar      1 <0>        -0.0848
     21 C17        -2.2124    1.2171   -1.1275 C.ar      1 <0>        -0.1515
     22 C18        -2.4604    0.1958   -0.0926 C.2       1 <0>         0.3647
     23 O4         -1.5297   -0.3961    0.4190 O.2       1 <0>        -0.3799
     24 N2         -3.7257   -0.0761    0.2817 N.am      1 <0>        -0.2720
     25 H1         -3.8851   -0.7697    0.9842 H         1 <0>         0.2669
     26 N3         -4.8207    0.5809   -0.2812 N.am      1 <0>        -0.2778
     27 H2         -5.7411    0.3440    0.0300 H         1 <0>         0.2675
     28 C19        -4.6747    1.5249   -1.2315 C.2       1 <0>         0.3543
     29 O5         -5.6498    2.0780   -1.7009 O.2       1 <0>        -0.3486
     30 H3          2.2765    7.6488    1.4332 H         1 <0>         0.0648
     31 H4          2.4603    8.9479    0.2305 H         1 <0>         0.1072
     32 H5          1.4442    7.5331   -0.1359 H         1 <0>         0.0686
     33 H6          1.6144    5.7377    0.9161 H         1 <0>         0.1400
     34 H7          1.6383    3.2873    1.0841 H         1 <0>         0.1336
     35 H8          5.4392    3.1961   -0.9145 H         1 <0>         0.1373
     36 H9          6.2971    4.3048   -2.4704 H         1 <0>         0.0655
     37 H10         7.4354    5.6381   -2.1625 H         1 <0>         0.1072
     38 H11         7.1288    4.4205   -0.9009 H         1 <0>         0.0623
     39 H12         4.4481    1.1026    0.5223 H         1 <0>         0.1368
     40 H13         2.4017   -0.1527    0.1054 H         1 <0>         0.1382
     41 H14         0.1143   -0.0530   -0.7497 H         1 <0>         0.2623
     42 H15         0.2585    2.7622   -2.8536 H         1 <0>         0.1780
     43 H16        -1.6712    3.9039   -3.8428 H         1 <0>         0.1442
     44 H17        -3.9584    3.3589   -3.1117 H         1 <0>         0.1589
@<TRIPOS>BOND
     1    1    2 1
     2    1   30 1
     3    1   31 1
     4    1   32 1
     5    2    3 1
     6    3    8 ar
     7    3    4 ar
     8    4    5 ar
     9    4   33 1
    10    5    6 ar
    11    5   34 1
    12    6    7 ar
    13    6   11 1
    14    7    8 ar
    15    7   35 1
    16    8    9 1
    17    9   10 1
    18   10   36 1
    19   10   37 1
    20   10   38 1
    21   11   12 2
    22   11   39 1
    23   12   13 1
    24   12   40 1
    25   13   14 2
    26   13   15 am
    27   15   16 1
    28   15   41 1
    29   16   21 ar
    30   16   17 ar
    31   17   18 ar
    32   17   42 1
    33   18   19 ar
    34   18   43 1
    35   19   20 ar
    36   19   44 1
    37   20   28 1
    38   20   21 ar
    39   21   22 1
    40   22   23 2
    41   22   24 am
    42   24   25 1
    43   24   26 1
    44   26   27 1
    45   26   28 am
    46   28   29 2
@<TRIPOS>MOLECULE
ZINC03855134
   42    44     0     0     0
SMALL
USER_CHARGES

@<TRIPOS>ATOM
      1 C1         -3.9237    5.0236    0.2650 C.3       1 <0>        -0.1688
      2 C2         -2.9354    3.8865    0.2280 C.ar      1 <0>        -0.0935
      3 C3         -3.3926    2.5770    0.2249 C.ar      1 <0>        -0.1146
      4 C4         -2.5002    1.5253    0.1917 C.ar      1 <0>        -0.1260
      5 C5         -1.1371    1.7774    0.1611 C.ar      1 <0>        -0.0485
      6 C6         -0.6684    3.1015    0.1672 C.ar      1 <0>        -0.0340
      7 C7         -1.5851    4.1553    0.2060 C.ar      1 <0>        -0.0739
      8 N1          0.6886    3.0461    0.1262 N.2       1 <0>        -0.1859
      9 C8          1.0774    1.7948    0.1010 C.2       1 <0>        -0.1124
     10 N2         -0.0118    0.9702    0.1244 N.pl3     1 <0>        -0.2090
     11 H1          0.0009   -0.0297    0.1165 H         1 <0>         0.2580
     12 S1          2.7542    1.2565    0.0453 S.3       1 <0>         0.2489
     13 C9          3.5983    2.8576    0.0376 C.3       1 <0>        -0.2729
     14 C10         5.0887    2.6395   -0.0091 C.2       1 <0>         0.3425
     15 O1          5.5368    1.5108   -0.0347 O.2       1 <0>        -0.3716
     16 C11         5.9638    3.7466   -0.0231 C.2       1 <0>        -0.4544
     17 C12         7.3562    3.5717    0.0569 C.2       1 <0>         0.3241
     18 N3          8.1627    4.6737    0.0344 N.am      1 <0>        -0.2736
     19 C13         7.6506    5.9113   -0.0512 C.2       1 <0>         0.4146
     20 O2          8.4106    6.8598   -0.0627 O.2       1 <0>        -0.3733
     21 N4          6.3294    6.1403   -0.1250 N.am      1 <0>        -0.3002
     22 C14         5.4485    5.1187   -0.1155 C.2       1 <0>         0.3701
     23 O3          4.2516    5.3298   -0.1817 O.2       1 <0>        -0.3413
     24 C15         5.8384    7.5176   -0.2165 C.3       1 <0>        -0.0592
     25 C16         9.6155    4.5017    0.1121 C.3       1 <0>        -0.0815
     26 N5          7.8921    2.3246    0.1499 N.pl3     1 <0>        -0.3577
     27 H2         -4.1365    5.2865    1.3012 H         1 <0>         0.0837
     28 H3         -3.5032    5.8874   -0.2500 H         1 <0>         0.0818
     29 H4         -4.8462    4.7194   -0.2295 H         1 <0>         0.0785
     30 H5         -4.4541    2.3794    0.2484 H         1 <0>         0.1316
     31 H6         -2.8626    0.5079    0.1892 H         1 <0>         0.1249
     32 H7         -1.2360    5.1773    0.2071 H         1 <0>         0.1434
     33 H8          3.3127    3.3811   -0.7651 H         1 <0>         0.1485
     34 H9          3.3399    3.4088    0.9417 H         1 <0>         0.1548
     35 H10         5.6685    7.9101    0.7860 H         1 <0>         0.0890
     36 H11         6.5781    8.1338   -0.7275 H         1 <0>         0.1076
     37 H12         4.9032    7.5334   -0.7762 H         1 <0>         0.1150
     38 H13        10.0988    5.4784    0.0868 H         1 <0>         0.1452
     39 H14         9.8720    3.9933    1.0416 H         1 <0>         0.0857
     40 H15         9.9566    3.9055   -0.7342 H         1 <0>         0.0886
     41 H16         7.3199    1.5444    0.0809 H         1 <0>         0.2940
     42 H17         8.8464    2.2156    0.2853 H         1 <0>         0.2218
@<TRIPOS>BOND
     1    1    2 1
     2    1   27 1
     3    1   28 1
     4    1   29 1
     5    2    7 ar
     6    2    3 ar
     7    3    4 ar
     8    3   30 1
     9    4    5 ar
    10    4   31 1
    11    5   10 1
    12    5    6 ar
    13    6    7 ar
    14    6    8 1
    15    7   32 1
    16    8    9 2
    17    9   10 1
    18    9   12 1
    19   10   11 1
    20   12   13 1
    21   13   14 1
    22   13   33 1
    23   13   34 1
    24   14   15 2
    25   14   16 1
    26   16   22 1
    27   16   17 2
    28   17   18 1
    29   17   26 1
    30   18   19 am
    31   18   25 1
    32   19   20 2
    33   19   21 am
    34   21   22 am
    35   21   24 1
    36   22   23 2
    37   24   35 1
    38   24   36 1
    39   24   37 1
    40   25   38 1
    41   25   39 1
    42   25   40 1
    43   26   41 1
    44   26   42 1
@<TRIPOS>MOLECULE
ZINC03855134
   43    45     0     0     0
SMALL
USER_CHARGES

@<TRIPOS>ATOM
      1 C1         -3.9237    5.0236    0.2650 C.3       1 <0>        -0.1836
      2 C2         -2.9354    3.8865    0.2280 C.ar      1 <0>        -0.0296
      3 C3         -3.3926    2.5770    0.2249 C.ar      1 <0>        -0.0795
      4 C4         -2.5002    1.5253    0.1917 C.ar      1 <0>        -0.0975
      5 C5         -1.1371    1.7774    0.1611 C.ar      1 <0>        -0.0199
      6 C6         -0.6684    3.1015    0.1672 C.ar      1 <0>        -0.0351
      7 C7         -1.5851    4.1553    0.2060 C.ar      1 <0>        -0.1015
      8 C8          1.0774    1.7948    0.1010 C.cat     1 <0>        -0.0364
      9 N1         -0.0118    0.9702    0.1244 N.pl3     1 <0>        -0.1464
     10 H1          0.0009   -0.0297    0.1165 H         1 <0>         0.3094
     11 S1          2.7542    1.2565    0.0453 S.3       1 <0>         0.3928
     12 C9          3.5983    2.8576    0.0376 C.3       1 <0>        -0.3263
     13 C10         5.0887    2.6395   -0.0091 C.2       1 <0>         0.3556
     14 O1          5.5368    1.5108   -0.0347 O.2       1 <0>        -0.3611
     15 C11         5.9638    3.7466   -0.0231 C.2       1 <0>        -0.4734
     16 C12         7.3562    3.5717    0.0569 C.2       1 <0>         0.3456
     17 N2          8.1627    4.6737    0.0344 N.am      1 <0>        -0.2664
     18 C13         7.6506    5.9113   -0.0512 C.2       1 <0>         0.4113
     19 O2          8.4106    6.8598   -0.0627 O.2       1 <0>        -0.3398
     20 N3          6.3294    6.1403   -0.1250 N.am      1 <0>        -0.2955
     21 C14         5.4485    5.1187   -0.1155 C.2       1 <0>         0.3920
     22 O3          4.2516    5.3298   -0.1817 O.2       1 <0>        -0.4007
     23 C15         5.8384    7.5176   -0.2165 C.3       1 <0>        -0.0613
     24 C16         9.6155    4.5017    0.1121 C.3       1 <0>        -0.0867
     25 N4          7.8921    2.3246    0.1499 N.pl3     1 <0>        -0.3416
     26 H2         -4.1365    5.2865    1.3012 H         1 <0>         0.1095
     27 H3         -3.5032    5.8874   -0.2500 H         1 <0>         0.0993
     28 H4         -4.8462    4.7194   -0.2295 H         1 <0>         0.1039
     29 H5         -4.4541    2.3794    0.2484 H         1 <0>         0.1680
     30 H6         -2.8626    0.5079    0.1892 H         1 <0>         0.1603
     31 H7         -1.2360    5.1773    0.2071 H         1 <0>         0.1602
     32 H8          3.3127    3.3811   -0.7651 H         1 <0>         0.1421
     33 H9          3.3399    3.4088    0.9417 H         1 <0>         0.1465
     34 H10         5.6685    7.9101    0.7860 H         1 <0>         0.0951
     35 H11         6.5781    8.1338   -0.7275 H         1 <0>         0.1208
     36 H12         4.9032    7.5334   -0.7762 H         1 <0>         0.1111
     37 H13        10.0988    5.4784    0.0868 H         1 <0>         0.1554
     38 H14         9.8720    3.9933    1.0416 H         1 <0>         0.0935
     39 H15         9.9566    3.9055   -0.7342 H         1 <0>         0.0970
     40 H16         7.3199    1.5444    0.0809 H         1 <0>         0.2930
     41 H17         8.8464    2.2156    0.2853 H         1 <0>         0.2361
     42 N5          0.6892    3.0468    0.1262 N.pl3     1 <0>        -0.1341
     43 H18         1.3146    3.8611    0.1164 H         1 <0>         0.3179
@<TRIPOS>BOND
     1    1    2 1
     2    1   26 1
     3    1   27 1
     4    1   28 1
     5    2    7 ar
     6    2    3 ar
     7    3    4 ar
     8    3   29 1
     9    4    5 ar
    10    4   30 1
    11    5    9 1
    12    5    6 ar
    13    6    7 ar
    14    6   42 1
    15    7   31 1
    16    8    9 1
    17    8   11 1
    18    8   42 2
    19    9   10 1
    20   11   12 1
    21   12   13 1
    22   12   32 1
    23   12   33 1
    24   13   14 2
    25   13   15 1
    26   15   21 1
    27   15   16 2
    28   16   17 1
    29   16   25 1
    30   17   18 am
    31   17   24 1
    32   18   19 2
    33   18   20 am
    34   20   21 am
    35   20   23 1
    36   21   22 2
    37   23   34 1
    38   23   35 1
    39   23   36 1
    40   24   37 1
    41   24   38 1
    42   24   39 1
    43   25   40 1
    44   25   41 1
    45   42   43 1
@<TRIPOS>MOLECULE
ZINC03855199
   39    41     0     0     0
SMALL
USER_CHARGES

@<TRIPOS>ATOM
      1 C1        -10.5224    7.8017   -0.0813 C.3       1 <0>        -0.0815
      2 N1         -9.0921    7.4961    0.0020 N.am      1 <0>        -0.2736
      3 C2         -8.6833    6.1932   -0.0274 C.2       1 <0>         0.3241
      4 C3         -7.3091    5.9098    0.0581 C.2       1 <0>        -0.4545
      5 C4         -6.3800    7.0423    0.1636 C.2       1 <0>         0.3702
      6 O1         -5.1793    6.8562    0.2350 O.2       1 <0>        -0.3414
      7 N2         -6.8850    8.2930    0.1791 N.am      1 <0>        -0.3002
      8 C5         -8.2092    8.5022    0.0996 C.2       1 <0>         0.4146
      9 O2         -8.6234    9.6448    0.1169 O.2       1 <0>        -0.3731
     10 C6         -5.9772    9.4381    0.2837 C.3       1 <0>        -0.0592
     11 C7         -6.8371    4.5800    0.0373 C.2       1 <0>         0.3426
     12 O3         -7.6249    3.6557    0.0521 O.2       1 <0>        -0.3716
     13 C8         -5.3556    4.3069   -0.0033 C.3       1 <0>        -0.2730
     14 S1         -5.0720    2.5193   -0.0220 S.3       1 <0>         0.2495
     15 C9         -3.3109    2.4894   -0.0684 C.2       1 <0>        -0.1124
     16 N3         -2.5452    1.3581   -0.0956 N.pl3     1 <0>        -0.2092
     17 H1         -2.8793    0.4156   -0.0930 H         1 <0>         0.2584
     18 C10        -1.2198    1.7601   -0.1274 C.ar      1 <0>        -0.0444
     19 C11        -0.0105    1.0828   -0.1632 C.ar      1 <0>        -0.1287
     20 C12         1.1729    1.7914   -0.1950 C.ar      1 <0>        -0.1168
     21 C13         1.1618    3.1783   -0.1862 C.ar      1 <0>        -0.1465
     22 C14        -0.0296    3.8673   -0.1455 C.ar      1 <0>        -0.0725
     23 C15        -1.2368    3.1645   -0.1124 C.ar      1 <0>        -0.0375
     24 N4         -2.5394    3.5488   -0.0705 N.2       1 <0>        -0.1852
     25 N5         -9.5917    5.1858   -0.1325 N.pl3     1 <0>        -0.3577
     26 H2        -10.6656    8.8817   -0.0492 H         1 <0>         0.1452
     27 H3        -10.9239    7.4096   -1.0157 H         1 <0>         0.0857
     28 H4        -11.0419    7.3411    0.7590 H         1 <0>         0.0886
     29 H5         -5.6845    9.7621   -0.7150 H         1 <0>         0.0891
     30 H6         -6.4818   10.2561    0.7977 H         1 <0>         0.1077
     31 H7         -5.0898    9.1480    0.8462 H         1 <0>         0.1150
     32 H8         -4.9210    4.7050    0.8046 H         1 <0>         0.1487
     33 H9         -4.9286    4.7519   -0.9020 H         1 <0>         0.1547
     34 H10         0.0049    0.0029   -0.1706 H         1 <0>         0.1248
     35 H11         2.1141    1.2627   -0.2274 H         1 <0>         0.1307
     36 H12         2.0947    3.7220   -0.2117 H         1 <0>         0.1315
     37 H13        -0.0310    4.9473   -0.1388 H         1 <0>         0.1425
     38 H14        -9.3015    4.2625   -0.0684 H         1 <0>         0.2940
     39 H15       -10.5295    5.3910   -0.2715 H         1 <0>         0.2219
@<TRIPOS>BOND
     1    1    2 1
     2    1   26 1
     3    1   27 1
     4    1   28 1
     5    2    8 am
     6    2    3 1
     7    3    4 2
     8    3   25 1
     9    4    5 1
    10    4   11 1
    11    5    6 2
    12    5    7 am
    13    7    8 am
    14    7   10 1
    15    8    9 2
    16   10   29 1
    17   10   30 1
    18   10   31 1
    19   11   12 2
    20   11   13 1
    21   13   14 1
    22   13   32 1
    23   13   33 1
    24   14   15 1
    25   15   24 2
    26   15   16 1
    27   16   17 1
    28   16   18 1
    29   18   23 ar
    30   18   19 ar
    31   19   20 ar
    32   19   34 1
    33   20   21 ar
    34   20   35 1
    35   21   22 ar
    36   21   36 1
    37   22   23 ar
    38   22   37 1
    39   23   24 1
    40   25   38 1
    41   25   39 1
@<TRIPOS>MOLECULE
ZINC03855199
   40    42     0     0     0
SMALL
USER_CHARGES

@<TRIPOS>ATOM
      1 C1        -10.5224    7.8017   -0.0813 C.3       1 <0>        -0.0867
      2 N1         -9.0921    7.4961    0.0020 N.am      1 <0>        -0.2663
      3 C2         -8.6833    6.1932   -0.0274 C.2       1 <0>         0.3457
      4 C3         -7.3091    5.9098    0.0581 C.2       1 <0>        -0.4736
      5 C4         -6.3800    7.0423    0.1636 C.2       1 <0>         0.3922
      6 O1         -5.1793    6.8562    0.2350 O.2       1 <0>        -0.4012
      7 N2         -6.8850    8.2930    0.1791 N.am      1 <0>        -0.2953
      8 C5         -8.2092    8.5022    0.0996 C.2       1 <0>         0.4112
      9 O2         -8.6234    9.6448    0.1169 O.2       1 <0>        -0.3394
     10 C6         -5.9772    9.4381    0.2837 C.3       1 <0>        -0.0613
     11 C7         -6.8371    4.5800    0.0373 C.2       1 <0>         0.3557
     12 O3         -7.6249    3.6557    0.0521 O.2       1 <0>        -0.3612
     13 C8         -5.3556    4.3069   -0.0033 C.3       1 <0>        -0.3269
     14 S1         -5.0720    2.5193   -0.0220 S.3       1 <0>         0.3957
     15 C9         -3.3109    2.4894   -0.0684 C.cat     1 <0>        -0.0344
     16 N3         -2.5452    1.3581   -0.0956 N.pl3     1 <0>        -0.1484
     17 H1         -2.8793    0.4156   -0.0930 H         1 <0>         0.3101
     18 C10        -1.2198    1.7601   -0.1274 C.ar      1 <0>        -0.0113
     19 C11        -0.0105    1.0828   -0.1632 C.ar      1 <0>        -0.1019
     20 C12         1.1729    1.7914   -0.1950 C.ar      1 <0>        -0.0763
     21 C13         1.1618    3.1783   -0.1862 C.ar      1 <0>        -0.0872
     22 C14        -0.0296    3.8673   -0.1455 C.ar      1 <0>        -0.0920
     23 C15        -1.2368    3.1645   -0.1124 C.ar      1 <0>        -0.0418
     24 N4         -9.5917    5.1858   -0.1325 N.pl3     1 <0>        -0.3414
     25 H2        -10.6656    8.8817   -0.0492 H         1 <0>         0.1555
     26 H3        -10.9239    7.4096   -1.0157 H         1 <0>         0.0936
     27 H4        -11.0419    7.3411    0.7590 H         1 <0>         0.0970
     28 H5         -5.6845    9.7621   -0.7150 H         1 <0>         0.0953
     29 H6         -6.4818   10.2561    0.7977 H         1 <0>         0.1209
     30 H7         -5.0898    9.1480    0.8462 H         1 <0>         0.1111
     31 H8         -4.9210    4.7050    0.8046 H         1 <0>         0.1420
     32 H9         -4.9286    4.7519   -0.9020 H         1 <0>         0.1470
     33 H10         0.0049    0.0029   -0.1706 H         1 <0>         0.1611
     34 H11         2.1141    1.2627   -0.2274 H         1 <0>         0.1687
     35 H12         2.0947    3.7220   -0.2117 H         1 <0>         0.1686
     36 H13        -0.0310    4.9473   -0.1388 H         1 <0>         0.1606
     37 H14        -9.3015    4.2625   -0.0684 H         1 <0>         0.2929
     38 H15       -10.5295    5.3910   -0.2715 H         1 <0>         0.2363
     39 N5         -2.5397    3.5497   -0.0705 N.pl3     1 <0>        -0.1336
     40 H16        -2.8693    4.5218   -0.0444 H         1 <0>         0.3188
@<TRIPOS>BOND
     1    1    2 1
     2    1   25 1
     3    1   26 1
     4    1   27 1
     5    2    8 am
     6    2    3 1
     7    3    4 2
     8    3   24 1
     9    4    5 1
    10    4   11 1
    11    5    6 2
    12    5    7 am
    13    7    8 am
    14    7   10 1
    15    8    9 2
    16   10   28 1
    17   10   29 1
    18   10   30 1
    19   11   12 2
    20   11   13 1
    21   13   14 1
    22   13   31 1
    23   13   32 1
    24   14   15 1
    25   15   16 1
    26   15   39 2
    27   16   17 1
    28   16   18 1
    29   18   23 ar
    30   18   19 ar
    31   19   20 ar
    32   19   33 1
    33   20   21 ar
    34   20   34 1
    35   21   22 ar
    36   21   35 1
    37   22   23 ar
    38   22   36 1
    39   23   39 1
    40   24   37 1
    41   24   38 1
    42   39   40 1
@<TRIPOS>MOLECULE
ZINC03855454
   42    44     0     0     0
SMALL
USER_CHARGES

@<TRIPOS>ATOM
      1 C1         -8.7187    5.3132   -0.9508 C.3       1 <0>        -0.1717
      2 C2         -7.3653    4.6855   -0.7382 C.ar      1 <0>        -0.0922
      3 C3         -7.2501    3.3111   -0.6390 C.ar      1 <0>        -0.1132
      4 C4         -6.0112    2.7327   -0.4442 C.ar      1 <0>        -0.1535
      5 C5         -4.8801    3.5331   -0.3485 C.ar      1 <0>         0.0662
      6 C6         -5.0000    4.9136   -0.4433 C.ar      1 <0>        -0.1213
      7 C7         -6.2411    5.4853   -0.6433 C.ar      1 <0>        -0.1203
      8 N1         -3.6242    2.9507   -0.1513 N.pl3     1 <0>        -0.2567
      9 C8         -2.5102    3.4851   -0.7694 C.ar      1 <0>         0.2944
     10 N2         -2.6192    4.5961   -1.4911 N.ar      1 <0>        -0.3853
     11 C9         -1.5470    5.1091   -2.0857 C.ar      1 <0>         0.2976
     12 N3         -0.3652    4.5133   -1.9540 N.ar      1 <0>        -0.3598
     13 C10        -0.2584    3.4011   -1.2374 C.ar      1 <0>         0.2841
     14 N4         -1.3289    2.8880   -0.6431 N.ar      1 <0>        -0.3487
     15 O1          0.9437    2.7929   -1.1078 O.3       1 <0>        -0.0839
     16 C11         0.9879    1.5990   -0.4621 C.ar      1 <0>         0.0315
     17 C12         2.1825    0.8848   -0.3959 C.ar      1 <0>        -0.1043
     18 C13         2.1780   -0.3275    0.2734 C.ar      1 <0>        -0.2132
     19 C14         0.9791   -0.7575    0.8388 C.ar      1 <0>         0.0715
     20 N5         -0.1066   -0.0119    0.7249 N.ar      1 <0>        -0.0538
     21 N6         -0.1022    1.1119    0.1049 N.ar      1 <0>         0.0022
     22 O2          0.9261   -1.9392    1.5049 O.3       1 <0>        -0.2189
     23 N7         -1.6589    6.2622   -2.8355 N.pl3     1 <0>        -0.2899
     24 C15        -2.9598    6.9211   -2.9762 C.3       1 <0>        -0.0468
     25 C16        -0.4769    6.8275   -3.4909 C.3       1 <0>        -0.0461
     26 H1         -9.1758    5.5270    0.0154 H         1 <0>         0.0841
     27 H2         -8.6051    6.2406   -1.5122 H         1 <0>         0.0791
     28 H3         -9.3543    4.6260   -1.5093 H         1 <0>         0.0798
     29 H4         -8.1299    2.6893   -0.7135 H         1 <0>         0.1314
     30 H5         -5.9219    1.6592   -0.3668 H         1 <0>         0.1338
     31 H6         -4.1230    5.5390   -0.3648 H         1 <0>         0.1618
     32 H7         -6.3344    6.5584   -0.7216 H         1 <0>         0.1291
     33 H8         -3.5351    2.1715    0.4195 H         1 <0>         0.2663
     34 H9          3.0844    1.2650   -0.8526 H         1 <0>         0.1611
     35 H10         3.0763   -0.9216    0.3548 H         1 <0>         0.1495
     36 H11         1.8292   -2.3685    1.4945 H         1 <0>         0.2360
     37 H12        -3.0877    7.6478   -2.1740 H         1 <0>         0.0697
     38 H13        -3.0069    7.4305   -3.9388 H         1 <0>         0.0777
     39 H14        -3.7527    6.1753   -2.9207 H         1 <0>         0.1124
     40 H15        -0.3785    6.4044   -4.4906 H         1 <0>         0.0732
     41 H16        -0.5843    7.9097   -3.5634 H         1 <0>         0.0759
     42 H17         0.4116    6.5889   -2.9063 H         1 <0>         0.1108
@<TRIPOS>BOND
     1    1    2 1
     2    1   26 1
     3    1   27 1
     4    1   28 1
     5    2    7 ar
     6    2    3 ar
     7    3    4 ar
     8    3   29 1
     9    4    5 ar
    10    4   30 1
    11    5    6 ar
    12    5    8 1
    13    6    7 ar
    14    6   31 1
    15    7   32 1
    16    8    9 1
    17    8   33 1
    18    9   14 ar
    19    9   10 ar
    20   10   11 ar
    21   11   12 ar
    22   11   23 1
    23   12   13 ar
    24   13   14 ar
    25   13   15 1
    26   15   16 1
    27   16   17 ar
    28   16   21 ar
    29   17   34 1
    30   17   18 ar
    31   18   35 1
    32   18   19 ar
    33   19   20 ar
    34   19   22 1
    35   20   21 ar
    36   22   36 1
    37   23   24 1
    38   23   25 1
    39   24   37 1
    40   24   38 1
    41   24   39 1
    42   25   40 1
    43   25   41 1
    44   25   42 1
@<TRIPOS>MOLECULE
ZINC03855459
   41    43     0     0     0
SMALL
USER_CHARGES

@<TRIPOS>ATOM
      1 C1          1.7791   -5.1038    0.1219 C.3       1 <0>        -0.1729
      2 C2          3.0121   -4.2376    0.1442 C.ar      1 <0>        -0.1368
      3 C3          4.2615   -4.8170    0.2027 C.ar      1 <0>        -0.0619
      4 C4          5.4057   -4.0319    0.2243 C.ar      1 <0>        -0.1684
      5 C5          5.3123   -2.6697    0.1874 C.ar      1 <0>        -0.0516
      6 C6          4.0534   -2.0593    0.1273 C.ar      1 <0>        -0.1191
      7 C7          2.8906   -2.8514    0.1052 C.ar      1 <0>         0.1318
      8 N1          1.6421   -2.2668    0.0452 N.am      1 <0>        -0.2805
      9 H1          0.8315   -2.8522    0.0306 H         1 <0>         0.2611
     10 C8          1.4853   -0.9329    0.0058 C.2       1 <0>         0.3863
     11 O1          0.3643   -0.4604   -0.0472 O.2       1 <0>        -0.3678
     12 C9          2.6485   -0.0387    0.0262 C.2       1 <0>        -0.3156
     13 C10         3.9355   -0.5999    0.0816 C.2       1 <0>         0.2269
     14 O2          5.0325    0.1841    0.0962 O.3       1 <0>        -0.2529
     15 C11         2.4780    1.3590   -0.0148 C.2       1 <0>         0.1025
     16 C12         1.8778    2.0167    1.0505 C.2       1 <0>        -0.2473
     17 C13         1.5470    3.4509    0.9808 C.2       1 <0>         0.3375
     18 O3          1.7931    4.1011   -0.0179 O.2       1 <0>        -0.3169
     19 N2          0.9643    4.0238    2.0541 N.am      1 <0>        -0.2758
     20 C14         0.6877    3.3193    3.1604 C.2       1 <0>         0.1744
     21 S1         -0.0529    4.1302    4.4738 S.2       1 <0>        -0.3253
     22 N3          0.9558    2.0125    3.2910 N.am      1 <0>        -0.2331
     23 C15         1.5434    1.3108    2.3000 C.2       1 <0>         0.3479
     24 O4          1.7862    0.1259    2.4325 O.2       1 <0>        -0.3052
     25 C16         0.6076    1.3318    4.5407 C.3       1 <0>         0.0026
     26 C17         1.7664    1.4192    5.5001 C.2       1 <0>        -0.2074
     27 C18         1.5889    1.9189    6.6979 C.2       1 <0>        -0.1717
     28 H2          1.5185   -5.3384   -0.9102 H         1 <0>         0.0912
     29 H3          1.9743   -6.0278    0.6662 H         1 <0>         0.0930
     30 H4          0.9528   -4.5720    0.5934 H         1 <0>         0.0796
     31 H5          4.3509   -5.8928    0.2321 H         1 <0>         0.1390
     32 H6          6.3771   -4.5015    0.2710 H         1 <0>         0.1398
     33 H7          6.2070   -2.0650    0.2049 H         1 <0>         0.1514
     34 H8          4.8894    1.1400    0.0670 H         1 <0>         0.2554
     35 H9          2.8142    1.9190   -0.8749 H         1 <0>         0.1587
     36 H10         0.7400    4.9670    2.0245 H         1 <0>         0.2865
     37 H11        -0.2669    1.8091    4.9829 H         1 <0>         0.1476
     38 H12         0.3848    0.2850    4.3344 H         1 <0>         0.1259
     39 H13         2.7433    1.0698    5.2001 H         1 <0>         0.1288
     40 H14         0.6120    2.2683    6.9979 H         1 <0>         0.1276
     41 H15         2.4194    1.9815    7.3855 H         1 <0>         0.1145
@<TRIPOS>BOND
     1    1    2 1
     2    1   28 1
     3    1   29 1
     4    1   30 1
     5    2    7 ar
     6    2    3 ar
     7    3    4 ar
     8    3   31 1
     9    4    5 ar
    10    4   32 1
    11    5    6 ar
    12    5   33 1
    13    6   13 1
    14    6    7 ar
    15    7    8 1
    16    8    9 1
    17    8   10 am
    18   10   11 2
    19   10   12 1
    20   12   13 2
    21   12   15 1
    22   13   14 1
    23   14   34 1
    24   15   16 2
    25   15   35 1
    26   16   23 1
    27   16   17 1
    28   17   18 2
    29   17   19 am
    30   19   20 1
    31   19   36 1
    32   20   21 2
    33   20   22 1
    34   22   23 am
    35   22   25 1
    36   23   24 2
    37   25   26 1
    38   25   37 1
    39   25   38 1
    40   26   27 2
    41   26   39 1
    42   27   40 1
    43   27   41 1
@<TRIPOS>MOLECULE
ZINC03855594
   41    43     0     0     0
SMALL
USER_CHARGES

@<TRIPOS>ATOM
      1 C1         -1.0289    1.8674    4.7680 C.3       1 <0>        -0.0693
      2 N1          0.0215    1.1085    4.0846 N.pl3     1 <0>        -0.1256
      3 C2          1.0325    0.3894    4.6816 C.2       1 <0>        -0.1748
      4 C3          1.7687   -0.1465    3.6932 C.2       1 <0>        -0.1440
      5 N2          1.2310    0.2216    2.5181 N.2       1 <0>        -0.1902
      6 C4          0.1833    0.9810    2.7392 C.2       1 <0>        -0.1903
      7 S1         -0.8433    1.7059    1.5042 S.3       1 <0>         0.2987
      8 C5         -0.0160    1.1003    0.0126 C.3       1 <0>        -0.2328
      9 C6         -0.7415    1.6096   -1.2061 C.2       1 <0>         0.2053
     10 N3         -0.0614    1.8331   -2.3538 N.pl3     1 <0>        -0.2638
     11 H1          0.8934    1.6682   -2.3990 H         1 <0>         0.2601
     12 C7         -0.7434    2.2992   -3.4598 C.2       1 <0>         0.2167
     13 N4         -0.1036    2.5268   -4.5951 N.2       1 <0>        -0.2699
     14 C8         -0.8038    2.8804   -5.7160 C.ar      1 <0>         0.0537
     15 C9         -0.9764    4.2271   -6.0397 C.ar      1 <0>        -0.1113
     16 C10        -1.6836    4.5771   -7.1724 C.ar      1 <0>        -0.1553
     17 C11        -2.2224    3.5981   -7.9878 C.ar      1 <0>        -0.1166
     18 C12        -2.0571    2.2596   -7.6766 C.ar      1 <0>        -0.2106
     19 C13        -1.3466    1.8924   -6.5481 C.ar      1 <0>         0.0759
     20 O1         -1.1799    0.5772   -6.2446 O.3       1 <0>        -0.2046
     21 C14        -1.7612   -0.3738   -7.1389 C.3       1 <0>        -0.0621
     22 N5         -2.0641    2.5187   -3.3678 N.2       1 <0>        -0.3478
     23 C15        -2.6937    2.2881   -2.2277 C.2       1 <0>         0.2713
     24 N6         -2.0302    1.8304   -1.1555 N.2       1 <0>        -0.3303
     25 N7         -4.0461    2.5154   -2.1419 N.pl3     1 <0>        -0.3541
     26 H2         -1.8882    1.2205    4.9446 H         1 <0>         0.0942
     27 H3         -0.6495    2.2358    5.7211 H         1 <0>         0.0975
     28 H4         -1.3306    2.7107    4.1467 H         1 <0>         0.1034
     29 H5          1.2020    0.2775    5.7423 H         1 <0>         0.1765
     30 H6          2.6411   -0.7700    3.8215 H         1 <0>         0.1800
     31 H7         -0.0228    0.0104    0.0104 H         1 <0>         0.1552
     32 H8          1.0138    1.4573   -0.0020 H         1 <0>         0.1373
     33 H9         -0.5570    4.9939   -5.4054 H         1 <0>         0.1361
     34 H10        -1.8170    5.6192   -7.4228 H         1 <0>         0.1237
     35 H11        -2.7748    3.8796   -8.8721 H         1 <0>         0.1220
     36 H12        -2.4803    1.5007   -8.3179 H         1 <0>         0.1283
     37 H13        -2.8390   -0.2181   -7.1844 H         1 <0>         0.0635
     38 H14        -1.3333   -0.2462   -8.1332 H         1 <0>         0.0653
     39 H15        -1.5546   -1.3825   -6.7811 H         1 <0>         0.1011
     40 H16        -4.5328    2.8429   -2.9144 H         1 <0>         0.2489
     41 H17        -4.5142    2.3484   -1.3089 H         1 <0>         0.2389
@<TRIPOS>BOND
     1    1    2 1
     2    1   26 1
     3    1   27 1
     4    1   28 1
     5    2    6 1
     6    2    3 1
     7    3    4 2
     8    3   29 1
     9    4    5 1
    10    4   30 1
    11    5    6 2
    12    6    7 1
    13    7    8 1
    14    8    9 1
    15    8   31 1
    16    8   32 1
    17    9   24 2
    18    9   10 1
    19   10   11 1
    20   10   12 1
    21   12   13 2
    22   12   22 1
    23   13   14 1
    24   14   19 ar
    25   14   15 ar
    26   15   16 ar
    27   15   33 1
    28   16   17 ar
    29   16   34 1
    30   17   18 ar
    31   17   35 1
    32   18   19 ar
    33   18   36 1
    34   19   20 1
    35   20   21 1
    36   21   37 1
    37   21   38 1
    38   21   39 1
    39   22   23 2
    40   23   24 1
    41   23   25 1
    42   25   40 1
    43   25   41 1
@<TRIPOS>MOLECULE
ZINC03855613
   41    43     0     0     0
SMALL
USER_CHARGES

@<TRIPOS>ATOM
      1 C1         -5.6768   -3.6792   -1.9227 C.3       1 <0>        -0.0694
      2 N1         -6.5115   -2.7374   -1.1726 N.pl3     1 <0>        -0.1253
      3 C2         -7.8331   -2.9099   -0.8271 C.2       1 <0>        -0.1741
      4 C3         -8.2088   -1.8096   -0.1532 C.2       1 <0>        -0.1440
      5 N2         -7.1546   -0.9802   -0.0762 N.2       1 <0>        -0.1906
      6 C4         -6.1268   -1.5274   -0.6823 C.2       1 <0>        -0.1909
      7 S1         -4.5237   -0.8135   -0.8408 S.3       1 <0>         0.3001
      8 C5         -4.7886    0.7506    0.0307 C.3       1 <0>        -0.2336
      9 C6         -3.5129    1.5528    0.0222 C.2       1 <0>         0.2055
     10 N3         -3.5639    2.9044    0.0352 N.pl3     1 <0>        -0.2665
     11 H1         -4.4182    3.3635    0.0497 H         1 <0>         0.2596
     12 C7         -2.3847    3.6219    0.0271 C.2       1 <0>         0.2089
     13 N4         -2.4048    4.9446    0.0395 N.2       1 <0>        -0.2791
     14 C8         -1.2341    5.6458    0.1410 C.ar      1 <0>         0.0387
     15 C9         -0.6832    5.9116    1.3968 C.ar      1 <0>        -0.1075
     16 C10         0.4998    6.6142    1.4937 C.ar      1 <0>        -0.2083
     17 C11         1.1370    7.0663    0.3467 C.ar      1 <0>         0.0690
     18 C12         0.5909    6.8093   -0.9029 C.ar      1 <0>        -0.1475
     19 C13        -0.5890    6.1030   -1.0105 C.ar      1 <0>        -0.1068
     20 O1          2.3002    7.7640    0.4477 O.3       1 <0>        -0.2182
     21 C14         2.8070    7.9933    1.7640 C.3       1 <0>        -0.0604
     22 N5         -1.2175    2.9597    0.0119 N.2       1 <0>        -0.3493
     23 C15        -1.2092    1.6372   -0.0061 C.2       1 <0>         0.2715
     24 N6         -2.3561    0.9417    0.0018 N.2       1 <0>        -0.3292
     25 N7         -0.0099    0.9670   -0.0277 N.pl3     1 <0>        -0.3525
     26 H2         -5.1840   -4.3602   -1.2289 H         1 <0>         0.0943
     27 H3         -6.3010   -4.2499   -2.6103 H         1 <0>         0.0979
     28 H4         -4.9245   -3.1281   -2.4870 H         1 <0>         0.1035
     29 H5         -8.4515   -3.7647   -1.0579 H         1 <0>         0.1768
     30 H6         -9.1906   -1.6239    0.2568 H         1 <0>         0.1802
     31 H7         -5.0832    0.5475    1.0603 H         1 <0>         0.1548
     32 H8         -5.5763    1.3154   -0.4678 H         1 <0>         0.1377
     33 H9         -1.1808    5.5643    2.2903 H         1 <0>         0.1311
     34 H10         0.9289    6.8164    2.4640 H         1 <0>         0.1285
     35 H11         1.0904    7.1632   -1.7927 H         1 <0>         0.1371
     36 H12        -1.0135    5.9041   -1.9834 H         1 <0>         0.1364
     37 H13         2.9955    7.0373    2.2525 H         1 <0>         0.0644
     38 H14         3.7365    8.5592    1.7020 H         1 <0>         0.1017
     39 H15         2.0754    8.5584    2.3417 H         1 <0>         0.0658
     40 H16         0.0036   -0.0029   -0.0370 H         1 <0>         0.2396
     41 H17         0.8232    1.4637   -0.0375 H         1 <0>         0.2500
@<TRIPOS>BOND
     1    1    2 1
     2    1   26 1
     3    1   27 1
     4    1   28 1
     5    2    6 1
     6    2    3 1
     7    3    4 2
     8    3   29 1
     9    4    5 1
    10    4   30 1
    11    5    6 2
    12    6    7 1
    13    7    8 1
    14    8    9 1
    15    8   31 1
    16    8   32 1
    17    9   24 2
    18    9   10 1
    19   10   11 1
    20   10   12 1
    21   12   13 2
    22   12   22 1
    23   13   14 1
    24   14   19 ar
    25   14   15 ar
    26   15   16 ar
    27   15   33 1
    28   16   17 ar
    29   16   34 1
    30   17   18 ar
    31   17   20 1
    32   18   19 ar
    33   18   35 1
    34   19   36 1
    35   20   21 1
    36   21   37 1
    37   21   38 1
    38   21   39 1
    39   22   23 2
    40   23   24 1
    41   23   25 1
    42   25   40 1
    43   25   41 1
@<TRIPOS>MOLECULE
ZINC03855968
   39    40     0     0     0
SMALL
USER_CHARGES

@<TRIPOS>ATOM
      1 C1          3.9782    5.8109    0.8885 C.3       1 <0>        -0.1706
      2 C2          2.6242    5.1612    0.7635 C.ar      1 <0>         0.0864
      3 C3          1.4692    5.9215    0.8642 C.ar      1 <0>        -0.3012
      4 C4          0.2442    5.2844    0.7438 C.ar      1 <0>         0.0346
      5 N1          0.2138    3.9781    0.5377 N.ar      1 <0>        -0.2708
      6 C5          1.3362    3.2807    0.4464 C.ar      1 <0>         0.2154
      7 N2          2.5231    3.8581    0.5619 N.ar      1 <0>        -0.2625
      8 N3          1.2673    1.9128    0.2305 N.pl3     1 <0>        -0.2434
      9 C6          0.0442    1.2961    0.1138 C.2       1 <0>        -0.0330
     10 C7         -0.0268   -0.0486    0.0068 C.2       1 <0>        -0.1019
     11 C8          1.1992   -0.8395   -0.0997 C.2       1 <0>         0.3640
     12 O1          1.6641   -1.0972   -1.1951 O.2       1 <0>        -0.3235
     13 N4          1.8140   -1.2830    1.0146 N.am      1 <0>        -0.3243
     14 N5          3.0122   -1.9322    0.9212 N.3       1 <0>        -0.2057
     15 N6         -1.2802   -0.6886   -0.0021 N.am      1 <0>        -0.3045
     16 C9         -1.3576   -2.0156   -0.2246 C.2       1 <0>         0.3378
     17 O2         -0.3413   -2.6751   -0.3282 O.2       1 <0>        -0.3203
     18 C10        -2.6781   -2.6695   -0.3427 C.ar      1 <0>        -0.1249
     19 C11        -3.8468   -1.9164   -0.2186 C.ar      1 <0>        -0.1067
     20 C12        -5.0759   -2.5318   -0.3352 C.ar      1 <0>        -0.1370
     21 C13        -5.1519   -3.8943   -0.5641 C.ar      1 <0>        -0.1036
     22 C14        -3.9974   -4.6475   -0.6824 C.ar      1 <0>        -0.1379
     23 C15        -2.7618   -4.0436   -0.5732 C.ar      1 <0>        -0.0620
     24 H1          4.2878    5.8075    1.9336 H         1 <0>         0.0995
     25 H2          4.7035    5.2565    0.2929 H         1 <0>         0.1058
     26 H3          3.9227    6.8385    0.5293 H         1 <0>         0.0908
     27 H4          1.5228    6.9870    1.0324 H         1 <0>         0.1475
     28 H5         -0.6744    5.8477    0.8170 H         1 <0>         0.1670
     29 H6          2.0821    1.3910    0.1618 H         1 <0>         0.2582
     30 H7         -0.8597    1.8871    0.1032 H         1 <0>         0.1777
     31 H8          1.4056   -1.1411    1.8830 H         1 <0>         0.2228
     32 H9          3.6935   -1.3661    0.4382 H         1 <0>         0.1532
     33 H10         3.3485   -2.2035    1.8330 H         1 <0>         0.1533
     34 H11        -2.0883   -0.1747    0.1519 H         1 <0>         0.2338
     35 H12        -3.7889   -0.8536   -0.0355 H         1 <0>         0.1223
     36 H13        -5.9809   -1.9496   -0.2435 H         1 <0>         0.1328
     37 H14        -6.1167   -4.3719   -0.6504 H         1 <0>         0.1325
     38 H15        -4.0635   -5.7106   -0.8611 H         1 <0>         0.1375
     39 H16        -1.8614   -4.6328   -0.6654 H         1 <0>         0.1610
@<TRIPOS>BOND
     1    1    2 1
     2    1   24 1
     3    1   25 1
     4    1   26 1
     5    2    7 ar
     6    2    3 ar
     7    3    4 ar
     8    3   27 1
     9    4    5 ar
    10    4   28 1
    11    5    6 ar
    12    6    7 ar
    13    6    8 1
    14    8    9 1
    15    8   29 1
    16    9   10 2
    17    9   30 1
    18   10   11 1
    19   10   15 1
    20   11   12 2
    21   11   13 am
    22   13   14 1
    23   13   31 1
    24   14   32 1
    25   14   33 1
    26   15   16 am
    27   15   34 1
    28   16   17 2
    29   16   18 1
    30   18   23 ar
    31   18   19 ar
    32   19   20 ar
    33   19   35 1
    34   20   21 ar
    35   20   36 1
    36   21   22 ar
    37   21   37 1
    38   22   23 ar
    39   22   38 1
    40   23   39 1
@<TRIPOS>MOLECULE
ZINC03856130
   42    44     0     0     0
SMALL
USER_CHARGES

@<TRIPOS>ATOM
      1 C1          8.2114    7.1937   -6.5493 C.3       1 <0>        -0.1776
      2 C2          7.8080    6.8302   -5.1435 C.ar      1 <0>        -0.0514
      3 C3          8.0344    7.7213   -4.1097 C.ar      1 <0>        -0.1472
      4 C4          7.6681    7.3938   -2.8203 C.ar      1 <0>        -0.0533
      5 C5          7.0682    6.1620   -2.5604 C.ar      1 <0>        -0.1062
      6 C6          6.8474    5.2658   -3.6059 C.ar      1 <0>        -0.0775
      7 C7          7.2133    5.6068   -4.8919 C.ar      1 <0>        -0.1473
      8 C8          6.6724    5.8043   -1.1782 C.2       1 <0>         0.3401
      9 O1          6.8712    6.5878   -0.2648 O.2       1 <0>        -0.3404
     10 N1          6.0994    4.6267   -0.9328 N.2       1 <0>        -0.2164
     11 C9          4.8385    4.5759   -0.4874 C.2       1 <0>        -0.0748
     12 C10         3.8863    5.6250   -0.3296 C.2       1 <0>        -0.2215
     13 N2          2.7217    5.2689    0.1269 N.2       1 <0>        -0.0060
     14 N3          2.4589    4.0430    0.4258 N.pl3     1 <0>        -0.2470
     15 S1          3.9100    3.2143    0.0586 S.3       1 <0>         0.4012
     16 C11         1.2671    3.5141    0.9263 C.ar      1 <0>         0.0638
     17 C12         1.1654    2.1524    1.1861 C.ar      1 <0>        -0.1153
     18 C13        -0.0129    1.6309    1.6802 C.ar      1 <0>        -0.1299
     19 C14        -1.0978    2.4647    1.9127 C.ar      1 <0>         0.0916
     20 C15        -0.9957    3.8254    1.6586 C.ar      1 <0>        -0.1983
     21 C16         0.1816    4.3490    1.1645 C.ar      1 <0>        -0.0918
     22 O2         -2.2594    1.9492    2.3944 O.3       1 <0>        -0.2061
     23 C17        -3.3352    2.8647    2.6103 C.3       1 <0>        -0.0648
     24 C18         4.1997    7.0237   -0.6684 C.2       1 <0>         0.4008
     25 O3          4.7725    7.2835   -1.7094 O.2       1 <0>        -0.3481
     26 N4          3.8517    8.0156    0.1751 N.am      1 <0>        -0.4009
     27 H1          9.2342    6.8634   -6.7307 H         1 <0>         0.0862
     28 H2          7.5412    6.7060   -7.2572 H         1 <0>         0.0814
     29 H3          8.1506    8.2745   -6.6768 H         1 <0>         0.0820
     30 H4          8.4991    8.6749   -4.3122 H         1 <0>         0.1307
     31 H5          7.8460    8.0899   -2.0139 H         1 <0>         0.1492
     32 H6          6.3875    4.3084   -3.4100 H         1 <0>         0.1390
     33 H7          7.0388    4.9154   -5.7031 H         1 <0>         0.1292
     34 H8          2.0083    1.5029    1.0017 H         1 <0>         0.1491
     35 H9         -0.0922    0.5728    1.8818 H         1 <0>         0.1565
     36 H10        -1.8392    4.4739    1.8438 H         1 <0>         0.1471
     37 H11         0.2594    5.4072    0.9627 H         1 <0>         0.1566
     38 H12        -4.2003    2.3245    2.9949 H         1 <0>         0.1141
     39 H13        -3.0289    3.6214    3.3325 H         1 <0>         0.0701
     40 H14        -3.5970    3.3463    1.6682 H         1 <0>         0.0707
     41 H15         3.3948    7.8083    1.0053 H         1 <0>         0.2233
     42 H16         4.0580    8.9367   -0.0481 H         1 <0>         0.2392
@<TRIPOS>BOND
     1    1    2 1
     2    1   27 1
     3    1   28 1
     4    1   29 1
     5    2    7 ar
     6    2    3 ar
     7    3    4 ar
     8    3   30 1
     9    4    5 ar
    10    4   31 1
    11    5    6 ar
    12    5    8 1
    13    6    7 ar
    14    6   32 1
    15    7   33 1
    16    8    9 2
    17    8   10 1
    18   10   11 2
    19   11   15 1
    20   11   12 1
    21   12   13 2
    22   12   24 1
    23   13   14 1
    24   14   15 1
    25   14   16 1
    26   16   21 ar
    27   16   17 ar
    28   17   18 ar
    29   17   34 1
    30   18   19 ar
    31   18   35 1
    32   19   20 ar
    33   19   22 1
    34   20   21 ar
    35   20   36 1
    36   21   37 1
    37   22   23 1
    38   23   38 1
    39   23   39 1
    40   23   40 1
    41   24   25 2
    42   24   26 am
    43   26   41 1
    44   26   42 1
@<TRIPOS>MOLECULE
ZINC03856131
   42    44     0     0     0
SMALL
USER_CHARGES

@<TRIPOS>ATOM
      1 C1        -10.1392    2.3984    0.0617 C.3       1 <0>        -0.1789
      2 C2         -8.7145    2.8896    0.0580 C.ar      1 <0>        -0.0476
      3 C3         -8.4542    4.2483    0.0642 C.ar      1 <0>        -0.1514
      4 C4         -7.1518    4.7041    0.0609 C.ar      1 <0>        -0.0694
      5 C5         -6.0968    3.7920    0.0508 C.ar      1 <0>        -0.1183
      6 C6         -6.3656    2.4236    0.0384 C.ar      1 <0>        -0.0634
      7 C7         -7.6722    1.9799    0.0481 C.ar      1 <0>        -0.1512
      8 C8         -4.6962    4.2749    0.0472 C.2       1 <0>         0.3084
      9 O1         -4.4638    5.4722    0.0531 O.2       1 <0>        -0.3781
     10 N1         -3.6903    3.4011    0.0376 N.2       1 <0>        -0.2210
     11 C9         -2.4251    3.8373    0.0344 C.2       1 <0>        -0.0389
     12 C10        -1.2073    3.0964    0.0246 C.2       1 <0>        -0.1905
     13 N2         -0.1149    3.8023    0.0288 N.2       1 <0>        -0.0245
     14 N3         -0.1428    5.0909    0.0313 N.pl3     1 <0>        -0.2508
     15 S1         -1.8130    5.4620    0.0410 S.3       1 <0>         0.4283
     16 C11         0.9371    5.9765    0.0315 C.ar      1 <0>         0.0547
     17 C12         2.2381    5.4870    0.0290 C.ar      1 <0>        -0.0909
     18 C13         3.3043    6.3631    0.0234 C.ar      1 <0>        -0.2013
     19 C14         3.0781    7.7324    0.0318 C.ar      1 <0>         0.0940
     20 C15         1.7795    8.2223    0.0400 C.ar      1 <0>        -0.1315
     21 C16         0.7117    7.3481    0.0399 C.ar      1 <0>        -0.1087
     22 O2          4.1290    8.5943    0.0324 O.3       1 <0>        -0.2057
     23 C17         5.4380    8.0212    0.0236 C.3       1 <0>        -0.0649
     24 C18        -1.1873    1.6238    0.0165 C.2       1 <0>         0.3897
     25 O3         -2.2323    1.0014    0.0181 O.2       1 <0>        -0.3235
     26 N4         -0.0111    0.9658    0.0074 N.am      1 <0>        -0.4212
     27 H1        -10.4872    2.2856   -0.9650 H         1 <0>         0.0883
     28 H2        -10.1904    1.4359    0.5706 H         1 <0>         0.0834
     29 H3        -10.7704    3.1186    0.5822 H         1 <0>         0.0822
     30 H4         -9.2720    4.9537    0.0720 H         1 <0>         0.1323
     31 H5         -6.9498    5.7651    0.0657 H         1 <0>         0.1486
     32 H6         -5.5528    1.7126    0.0257 H         1 <0>         0.1651
     33 H7         -7.8816    0.9204    0.0429 H         1 <0>         0.1340
     34 H8          2.4143    4.4215    0.0270 H         1 <0>         0.1529
     35 H9          4.3152    5.9830    0.0170 H         1 <0>         0.1461
     36 H10         1.6047    9.2880    0.0462 H         1 <0>         0.1572
     37 H11        -0.2986    7.7295    0.0467 H         1 <0>         0.1535
     38 H12         6.1830    8.8169    0.0251 H         1 <0>         0.1141
     39 H13         5.5685    7.3996    0.9095 H         1 <0>         0.0702
     40 H14         5.5611    7.4099   -0.8705 H         1 <0>         0.0702
     41 H15         0.0021   -0.0041    0.0020 H         1 <0>         0.2347
     42 H16         0.8223    1.4622    0.0021 H         1 <0>         0.2239
@<TRIPOS>BOND
     1    1    2 1
     2    1   27 1
     3    1   28 1
     4    1   29 1
     5    2    7 ar
     6    2    3 ar
     7    3    4 ar
     8    3   30 1
     9    4    5 ar
    10    4   31 1
    11    5    6 ar
    12    5    8 1
    13    6    7 ar
    14    6   32 1
    15    7   33 1
    16    8    9 2
    17    8   10 1
    18   10   11 2
    19   11   15 1
    20   11   12 1
    21   12   13 2
    22   12   24 1
    23   13   14 1
    24   14   15 1
    25   14   16 1
    26   16   21 ar
    27   16   17 ar
    28   17   18 ar
    29   17   34 1
    30   18   19 ar
    31   18   35 1
    32   19   20 ar
    33   19   22 1
    34   20   21 ar
    35   20   36 1
    36   21   37 1
    37   22   23 1
    38   23   38 1
    39   23   39 1
    40   23   40 1
    41   24   25 2
    42   24   26 am
    43   26   41 1
    44   26   42 1
@<TRIPOS>MOLECULE
ZINC03856349
   38    40     0     0     0
SMALL
USER_CHARGES

@<TRIPOS>ATOM
      1 C1         -4.8184    0.5199    0.5850 C.3       1 <0>        -0.0651
      2 O1         -4.8093    1.6089   -0.3401 O.3       1 <0>        -0.2001
      3 C2         -3.5996    1.9960   -0.8261 C.ar      1 <0>         0.0601
      4 C3         -2.4528    1.3392   -0.4259 C.ar      1 <0>        -0.1840
      5 C4         -1.2084    1.7442   -0.9246 C.ar      1 <0>        -0.0542
      6 C5         -1.1356    2.8059   -1.8348 C.ar      1 <0>        -0.0785
      7 C6         -2.2855    3.4515   -2.2321 C.ar      1 <0>        -0.1259
      8 C7         -3.5184    3.0524   -1.7329 C.ar      1 <0>         0.0643
      9 O2         -4.6489    3.6926   -2.1294 O.3       1 <0>        -0.2755
     10 C8          0.0155    1.0539   -0.4989 C.2       1 <0>         0.0230
     11 C9          1.1375    1.7676   -0.2270 C.2       1 <0>        -0.3337
     12 C10         1.3299    3.2335   -0.1305 C.2       1 <0>         0.3203
     13 O3          0.4094    4.0165   -0.3031 O.2       1 <0>        -0.2707
     14 N1          2.5463    3.6446    0.1515 N.2       1 <0>        -0.3664
     15 C11         3.5531    2.8063    0.3413 C.2       1 <0>         0.1094
     16 S1          2.7978    1.2026    0.1233 S.3       1 <0>         0.1669
     17 N2          4.8587    3.0983    0.6385 N.pl3     1 <0>        -0.2195
     18 C12         5.2537    4.4286    0.8235 C.ar      1 <0>         0.0312
     19 C13         4.5796    5.4510    0.1686 C.ar      1 <0>        -0.1069
     20 C14         4.9669    6.7632    0.3554 C.ar      1 <0>        -0.1328
     21 C15         6.0357    7.0595    1.1887 C.ar      1 <0>         0.0638
     22 C16         6.7129    6.0383    1.8392 C.ar      1 <0>        -0.1382
     23 C17         6.3236    4.7260    1.6576 C.ar      1 <0>        -0.1419
     24 O4          6.4195    8.3515    1.3684 O.3       1 <0>        -0.2886
     25 H1         -5.8433    0.3137    0.8934 H         1 <0>         0.1098
     26 H2         -4.3974   -0.3654    0.1083 H         1 <0>         0.0625
     27 H3         -4.2215    0.7805    1.4590 H         1 <0>         0.0705
     28 H4         -2.5150    0.5179    0.2726 H         1 <0>         0.1381
     29 H5         -0.1782    3.1186   -2.2248 H         1 <0>         0.1473
     30 H6         -2.2283    4.2702   -2.9342 H         1 <0>         0.1492
     31 H7         -5.0634    3.3091   -2.9144 H         1 <0>         0.2248
     32 H8          0.0242   -0.0221   -0.4065 H         1 <0>         0.1429
     33 H9          5.5090    2.3833    0.7207 H         1 <0>         0.2596
     34 H10         3.7501    5.2202   -0.4833 H         1 <0>         0.1832
     35 H11         4.4402    7.5588   -0.1506 H         1 <0>         0.1508
     36 H12         7.5451    6.2697    2.4875 H         1 <0>         0.1446
     37 H13         6.8511    3.9311    2.1638 H         1 <0>         0.1326
     38 H14         7.0840    8.6561    0.7354 H         1 <0>         0.2271
@<TRIPOS>BOND
     1    1    2 1
     2    1   25 1
     3    1   26 1
     4    1   27 1
     5    2    3 1
     6    3    8 ar
     7    3    4 ar
     8    4    5 ar
     9    4   28 1
    10    5    6 ar
    11    5   10 1
    12    6    7 ar
    13    6   29 1
    14    7    8 ar
    15    7   30 1
    16    8    9 1
    17    9   31 1
    18   10   11 2
    19   10   32 1
    20   11   16 1
    21   11   12 1
    22   12   13 2
    23   12   14 1
    24   14   15 2
    25   15   16 1
    26   15   17 1
    27   17   18 1
    28   17   33 1
    29   18   23 ar
    30   18   19 ar
    31   19   20 ar
    32   19   34 1
    33   20   21 ar
    34   20   35 1
    35   21   22 ar
    36   21   24 1
    37   22   23 ar
    38   22   36 1
    39   23   37 1
    40   24   38 1
@<TRIPOS>MOLECULE
ZINC03856350
   38    40     0     0     0
SMALL
USER_CHARGES

@<TRIPOS>ATOM
      1 C1         -2.0869   -0.2880    1.6852 C.3       1 <0>        -0.0670
      2 O1         -2.1086    1.1215    1.9198 O.3       1 <0>        -0.1980
      3 C2         -0.9401    1.7947    1.7437 C.ar      1 <0>         0.0702
      4 C3          0.1967    1.1140    1.3552 C.ar      1 <0>        -0.1839
      5 C4          1.3966    1.8117    1.1689 C.ar      1 <0>        -0.0504
      6 C5          1.4376    3.1950    1.3835 C.ar      1 <0>        -0.1290
      7 C6          0.2998    3.8643    1.7765 C.ar      1 <0>        -0.1205
      8 C7         -0.8895    3.1713    1.9604 C.ar      1 <0>         0.0610
      9 O2         -2.0083    3.8374    2.3472 O.3       1 <0>        -0.2747
     10 C8          2.6075    1.0953    0.7495 C.2       1 <0>         0.0119
     11 C9          3.7347    1.7877    0.4459 C.2       1 <0>        -0.3252
     12 C10         5.1080    1.2973    0.1834 C.2       1 <0>         0.3265
     13 O3          5.3850    0.1089    0.2177 O.2       1 <0>        -0.2786
     14 N1          6.0117    2.2123   -0.0890 N.2       1 <0>        -0.3677
     15 C11         5.7246    3.5040   -0.1298 C.2       1 <0>         0.0861
     16 S1          3.9784    3.5477    0.2425 S.3       1 <0>         0.1844
     17 N2          6.5634    4.5537   -0.3994 N.pl3     1 <0>        -0.2168
     18 C12         7.9227    4.3198   -0.6390 C.ar      1 <0>         0.0319
     19 C13         8.5392    3.1961   -0.1042 C.ar      1 <0>        -0.1085
     20 C14         9.8788    2.9635   -0.3454 C.ar      1 <0>        -0.1322
     21 C15        10.6114    3.8577   -1.1122 C.ar      1 <0>         0.0619
     22 C16         9.9976    4.9831   -1.6424 C.ar      1 <0>        -0.1377
     23 C17         8.6568    5.2143   -1.4069 C.ar      1 <0>        -0.1442
     24 O4         11.9318    3.6308   -1.3445 O.3       1 <0>        -0.2890
     25 H1         -3.0803   -0.7008    1.8607 H         1 <0>         0.1135
     26 H2         -1.7907   -0.4802    0.6540 H         1 <0>         0.0674
     27 H3         -1.3733   -0.7580    2.3618 H         1 <0>         0.0713
     28 H4          0.1595    0.0472    1.1911 H         1 <0>         0.1453
     29 H5          2.3611    3.7366    1.2412 H         1 <0>         0.1496
     30 H6          0.3326    4.9311    1.9417 H         1 <0>         0.1491
     31 H7         -2.5433    4.1676    1.6124 H         1 <0>         0.2289
     32 H8          2.6013    0.0174    0.6825 H         1 <0>         0.1684
     33 H9          6.2153    5.4587   -0.4242 H         1 <0>         0.2585
     34 H10         7.9700    2.5022    0.4965 H         1 <0>         0.1843
     35 H11        10.3573    2.0874    0.0668 H         1 <0>         0.1504
     36 H12        10.5686    5.6785   -2.2398 H         1 <0>         0.1441
     37 H13         8.1790    6.0903   -1.8201 H         1 <0>         0.1318
     38 H14        12.5202    4.0208   -0.6836 H         1 <0>         0.2268
@<TRIPOS>BOND
     1    1    2 1
     2    1   25 1
     3    1   26 1
     4    1   27 1
     5    2    3 1
     6    3    8 ar
     7    3    4 ar
     8    4    5 ar
     9    4   28 1
    10    5    6 ar
    11    5   10 1
    12    6    7 ar
    13    6   29 1
    14    7    8 ar
    15    7   30 1
    16    8    9 1
    17    9   31 1
    18   10   11 2
    19   10   32 1
    20   11   16 1
    21   11   12 1
    22   12   13 2
    23   12   14 1
    24   14   15 2
    25   15   16 1
    26   15   17 1
    27   17   18 1
    28   17   33 1
    29   18   23 ar
    30   18   19 ar
    31   19   20 ar
    32   19   34 1
    33   20   21 ar
    34   20   35 1
    35   21   22 ar
    36   21   24 1
    37   22   23 ar
    38   22   36 1
    39   23   37 1
    40   24   38 1
@<TRIPOS>MOLECULE
ZINC03857122
   39    41     0     0     0
SMALL
USER_CHARGES

@<TRIPOS>ATOM
      1 C1          3.6421    7.5647   -0.4186 C.3       1 <0>        -0.1719
      2 C2          3.6055    6.0619   -0.3125 C.ar      1 <0>        -0.0984
      3 C3          3.6547    5.4581    0.9317 C.ar      1 <0>        -0.1175
      4 C4          3.6221    4.0833    1.0366 C.ar      1 <0>        -0.1543
      5 C5          3.5387    3.2998   -0.1176 C.ar      1 <0>         0.0125
      6 C6          3.4944    3.9165   -1.3708 C.ar      1 <0>        -0.1574
      7 C7          3.5234    5.2925   -1.4598 C.ar      1 <0>        -0.1177
      8 N1          3.5065    1.9370   -0.0215 N.2       1 <0>        -0.2231
      9 C8          2.3463    1.3022   -0.0097 C.2       1 <0>         0.2193
     10 N2          1.1619    2.0101    0.0166 N.pl3     1 <0>        -0.3395
     11 H1          1.1664    2.9801    0.0268 H         1 <0>         0.2493
     12 C9         -0.0158    1.3204    0.0276 C.2       1 <0>         0.3150
     13 N3          0.0017   -0.0033    0.0128 N.2       1 <0>        -0.3637
     14 C10         1.1498   -0.6694   -0.0125 C.2       1 <0>         0.1663
     15 N4          2.3048   -0.0402   -0.0238 N.2       1 <0>        -0.2408
     16 C11         1.1292   -2.1762   -0.0292 C.3       1 <0>        -0.1957
     17 S1          1.0945   -2.7602   -1.7420 S.3       1 <0>         0.2611
     18 C12         1.0754   -4.5012   -1.4713 C.2       1 <0>        -0.2166
     19 N5          1.0911   -5.1106   -0.3086 N.2       1 <0>        -0.1060
     20 N6          1.0668   -6.3838   -0.4827 N.2       1 <0>        -0.0817
     21 C13         1.0427   -6.6609   -1.7557 C.2       1 <0>        -0.1324
     22 N7          1.0473   -5.4718   -2.4313 N.pl3     1 <0>        -0.1602
     23 C14         1.0263   -5.2794   -3.8834 C.3       1 <0>        -0.0677
     24 N8         -1.2046    1.9915    0.0479 N.pl3     1 <0>        -0.3720
     25 H2          4.6767    7.8982   -0.4987 H         1 <0>         0.0882
     26 H3          3.0892    7.8801   -1.3034 H         1 <0>         0.0776
     27 H4          3.1868    8.0028    0.4696 H         1 <0>         0.0779
     28 H5          3.7191    6.0649    1.8228 H         1 <0>         0.1302
     29 H6          3.6612    3.6135    2.0082 H         1 <0>         0.1411
     30 H7          3.4344    3.3172   -2.2673 H         1 <0>         0.1398
     31 H8          3.4854    5.7706   -2.4275 H         1 <0>         0.1297
     32 H9          2.0220   -2.5572    0.4666 H         1 <0>         0.1545
     33 H10         0.2425   -2.5333    0.4945 H         1 <0>         0.1455
     34 H11         1.0228   -7.6469   -2.1958 H         1 <0>         0.2101
     35 H12         2.0486   -5.2450   -4.2601 H         1 <0>         0.0980
     36 H13         0.4941   -6.1072   -4.3520 H         1 <0>         0.0978
     37 H14         0.5208   -4.3428   -4.1186 H         1 <0>         0.1063
     38 H15        -2.0399    1.4983    0.0516 H         1 <0>         0.2608
     39 H16        -1.2140    2.9614    0.0587 H         1 <0>         0.2355
@<TRIPOS>BOND
     1    1    2 1
     2    1   25 1
     3    1   26 1
     4    1   27 1
     5    2    7 ar
     6    2    3 ar
     7    3    4 ar
     8    3   28 1
     9    4    5 ar
    10    4   29 1
    11    5    6 ar
    12    5    8 1
    13    6    7 ar
    14    6   30 1
    15    7   31 1
    16    8    9 2
    17    9   15 1
    18    9   10 1
    19   10   11 1
    20   10   12 1
    21   12   13 2
    22   12   24 1
    23   13   14 1
    24   14   15 2
    25   14   16 1
    26   16   17 1
    27   16   32 1
    28   16   33 1
    29   17   18 1
    30   18   22 1
    31   18   19 2
    32   19   20 1
    33   20   21 2
    34   21   22 1
    35   21   34 1
    36   22   23 1
    37   23   35 1
    38   23   36 1
    39   23   37 1
    40   24   38 1
    41   24   39 1
@<TRIPOS>MOLECULE
ZINC03857165
   39    41     0     0     0
SMALL
USER_CHARGES

@<TRIPOS>ATOM
      1 C1          3.1585    4.7315   -3.1335 C.3       1 <0>        -0.0684
      2 O1          2.0746    4.5552   -2.2192 O.3       1 <0>        -0.1995
      3 C2          2.2421    3.6334   -1.2335 C.ar      1 <0>         0.0642
      4 C3          3.4168    2.9152   -1.1541 C.ar      1 <0>        -0.1191
      5 C4          3.5880    1.9688   -0.1319 C.ar      1 <0>        -0.0770
      6 C5          2.5579    1.7521    0.7963 C.ar      1 <0>        -0.1138
      7 C6          1.3882    2.4701    0.7041 C.ar      1 <0>        -0.1375
      8 C7          1.2227    3.4108   -0.3061 C.ar      1 <0>         0.0733
      9 O2          0.0660    4.1155   -0.3908 O.3       1 <0>        -0.2754
     10 C8          4.8330    1.2075   -0.0375 C.2       1 <0>         0.0884
     11 C9          6.0492    1.8548   -0.1504 C.2       1 <0>        -0.3100
     12 C10         6.1434    3.3309   -0.1476 C.2       1 <0>         0.3374
     13 O3          5.1431    4.0207   -0.0456 O.2       1 <0>        -0.2875
     14 N1          7.3579    3.8925   -0.2605 N.2       1 <0>        -0.3865
     15 C11         8.4473    3.1744   -0.3717 C.2       1 <0>         0.3495
     16 N2          8.4574    1.8143   -0.3837 N.am      1 <0>        -0.2343
     17 C12         7.3136    1.1055   -0.2730 C.2       1 <0>         0.3696
     18 O4          7.3251   -0.1113   -0.2787 O.2       1 <0>        -0.3097
     19 C13         9.6784    1.1360   -0.5073 C.ar      1 <0>        -0.0118
     20 C14        10.3997    0.7899    0.6268 C.ar      1 <0>        -0.0767
     21 C15        11.6021    0.1212    0.5022 C.ar      1 <0>        -0.1386
     22 C16        12.0882   -0.2043   -0.7508 C.ar      1 <0>        -0.0864
     23 C17        11.3733    0.1378   -1.8835 C.ar      1 <0>        -0.1631
     24 C18        10.1665    0.8036   -1.7659 C.ar      1 <0>         0.1248
     25 F1          9.4651    1.1335   -2.8724 F         1 <0>        -0.0959
     26 O5          9.6251    3.8194   -0.4809 O.3       1 <0>        -0.2532
     27 H1          3.3599    3.7899   -3.6443 H         1 <0>         0.0602
     28 H2          2.8948    5.4935   -3.8670 H         1 <0>         0.1082
     29 H3          4.0476    5.0457   -2.5868 H         1 <0>         0.0844
     30 H4          4.2043    3.0836   -1.8737 H         1 <0>         0.1469
     31 H5          2.6832    1.0218    1.5820 H         1 <0>         0.1342
     32 H6          0.5958    2.3024    1.4186 H         1 <0>         0.1461
     33 H7         -0.6105    3.6964   -0.9402 H         1 <0>         0.2262
     34 H8          4.8023    0.1396    0.1203 H         1 <0>         0.1572
     35 H9         10.0210    1.0428    1.6061 H         1 <0>         0.1473
     36 H10        12.1632   -0.1480    1.3849 H         1 <0>         0.1424
     37 H11        13.0284   -0.7274   -0.8447 H         1 <0>         0.1416
     38 H12        11.7554   -0.1181   -2.8607 H         1 <0>         0.1525
     39 H13         9.5988    4.7860   -0.4708 H         1 <0>         0.2899
@<TRIPOS>BOND
     1    1    2 1
     2    1   27 1
     3    1   28 1
     4    1   29 1
     5    2    3 1
     6    3    8 ar
     7    3    4 ar
     8    4    5 ar
     9    4   30 1
    10    5    6 ar
    11    5   10 1
    12    6    7 ar
    13    6   31 1
    14    7    8 ar
    15    7   32 1
    16    8    9 1
    17    9   33 1
    18   10   11 2
    19   10   34 1
    20   11   17 1
    21   11   12 1
    22   12   13 2
    23   12   14 1
    24   14   15 2
    25   15   16 1
    26   15   26 1
    27   16   17 am
    28   16   19 1
    29   17   18 2
    30   19   24 ar
    31   19   20 ar
    32   20   21 ar
    33   20   35 1
    34   21   22 ar
    35   21   36 1
    36   22   23 ar
    37   22   37 1
    38   23   24 ar
    39   23   38 1
    40   24   25 1
    41   26   39 1
@<TRIPOS>MOLECULE
ZINC03857166
   39    41     0     0     0
SMALL
USER_CHARGES

@<TRIPOS>ATOM
      1 C1         -1.2624   -4.1806    6.9079 C.3       1 <0>        -0.0660
      2 O1         -0.6657   -2.8934    7.0787 O.3       1 <0>        -0.1999
      3 C2         -0.1961   -2.2774    5.9609 C.ar      1 <0>         0.0594
      4 C3         -0.3079   -2.8972    4.7340 C.ar      1 <0>        -0.1737
      5 C4          0.1780   -2.2580    3.5828 C.ar      1 <0>        -0.0790
      6 C5          0.7793   -0.9944    3.6891 C.ar      1 <0>        -0.0681
      7 C6          0.8811   -0.3833    4.9173 C.ar      1 <0>        -0.1307
      8 C7          0.3991   -1.0182    6.0563 C.ar      1 <0>         0.0714
      9 O2          0.5081   -0.4119    7.2656 O.3       1 <0>        -0.2757
     10 C8          0.0636   -2.9090    2.2784 C.2       1 <0>         0.0819
     11 C9         -0.3822   -2.1912    1.1844 C.2       1 <0>        -0.3022
     12 C10        -0.3056   -2.7421   -0.1861 C.2       1 <0>         0.3445
     13 O3          0.1564   -3.8522   -0.3884 O.2       1 <0>        -0.2971
     14 N1         -0.7570   -1.9890   -1.2021 N.2       1 <0>        -0.3852
     15 C11        -1.2623   -0.7960   -1.0111 C.2       1 <0>         0.3499
     16 N2         -1.3673   -0.2071    0.2104 N.am      1 <0>        -0.2346
     17 C12        -0.9560   -0.8403    1.3297 C.2       1 <0>         0.3620
     18 O4         -1.0557   -0.3139    2.4224 O.2       1 <0>        -0.2955
     19 C13        -1.9181    1.0786    0.3097 C.ar      1 <0>        -0.0121
     20 C14        -1.0975    2.1950    0.2278 C.ar      1 <0>        -0.0786
     21 C15        -1.6427    3.4605    0.3255 C.ar      1 <0>        -0.1390
     22 C16        -3.0050    3.6171    0.5043 C.ar      1 <0>        -0.0861
     23 C17        -3.8267    2.5082    0.5861 C.ar      1 <0>        -0.1622
     24 C18        -3.2880    1.2381    0.4848 C.ar      1 <0>         0.1267
     25 F1         -4.0913    0.1545    0.5595 F         1 <0>        -0.0940
     26 O5         -1.6976   -0.1108   -2.0863 O.3       1 <0>        -0.2530
     27 H1         -0.5308   -4.8665    6.4809 H         1 <0>         0.0646
     28 H2         -1.5937   -4.5587    7.8750 H         1 <0>         0.1113
     29 H3         -2.1179   -4.0984    6.2374 H         1 <0>         0.0710
     30 H4         -0.7676   -3.8716    4.6593 H         1 <0>         0.1418
     31 H5          1.1587   -0.5005    2.8067 H         1 <0>         0.1365
     32 H6          1.3405    0.5907    4.9976 H         1 <0>         0.1475
     33 H7          1.3273   -0.6176    7.7363 H         1 <0>         0.2270
     34 H8          0.3275   -3.9506    2.1697 H         1 <0>         0.1666
     35 H9         -0.0334    2.0744    0.0881 H         1 <0>         0.1450
     36 H10        -1.0040    4.3290    0.2617 H         1 <0>         0.1416
     37 H11        -3.4281    4.6079    0.5800 H         1 <0>         0.1416
     38 H12        -4.8903    2.6337    0.7255 H         1 <0>         0.1529
     39 H13        -1.6151   -0.5449   -2.9464 H         1 <0>         0.2899
@<TRIPOS>BOND
     1    1    2 1
     2    1   27 1
     3    1   28 1
     4    1   29 1
     5    2    3 1
     6    3    8 ar
     7    3    4 ar
     8    4    5 ar
     9    4   30 1
    10    5    6 ar
    11    5   10 1
    12    6    7 ar
    13    6   31 1
    14    7    8 ar
    15    7   32 1
    16    8    9 1
    17    9   33 1
    18   10   11 2
    19   10   34 1
    20   11   17 1
    21   11   12 1
    22   12   13 2
    23   12   14 1
    24   14   15 2
    25   15   16 1
    26   15   26 1
    27   16   17 am
    28   16   19 1
    29   17   18 2
    30   19   24 ar
    31   19   20 ar
    32   20   21 ar
    33   20   35 1
    34   21   22 ar
    35   21   36 1
    36   22   23 ar
    37   22   37 1
    38   23   24 ar
    39   23   38 1
    40   24   25 1
    41   26   39 1
@<TRIPOS>MOLECULE
ZINC03857206
   42    44     0     0     0
SMALL
USER_CHARGES

@<TRIPOS>ATOM
      1 C1          2.0409   -7.6775    6.2345 C.3       1 <0>        -0.2107
      2 C2          1.5314   -6.6452    5.2267 C.3       1 <0>        -0.0179
      3 O1          0.9167   -7.3174    4.1257 O.3       1 <0>        -0.2022
      4 C3          0.4074   -6.5391    3.1336 C.ar      1 <0>         0.0596
      5 C4          0.4981   -5.1657    3.2199 C.ar      1 <0>        -0.1748
      6 C5         -0.0288   -4.3660    2.1939 C.ar      1 <0>        -0.0774
      7 C6         -0.6493   -4.9697    1.0892 C.ar      1 <0>        -0.0577
      8 C7         -0.7290   -6.3408    1.0108 C.ar      1 <0>        -0.1309
      9 C8         -0.2065   -7.1310    2.0283 C.ar      1 <0>         0.0728
     10 O2         -0.2938   -8.4829    1.9469 O.3       1 <0>        -0.2754
     11 C9          0.0631   -2.9090    2.2784 C.2       1 <0>         0.0857
     12 C10         0.4674   -2.1770    1.1777 C.2       1 <0>        -0.3075
     13 C11         1.0249   -2.8325   -0.0253 C.2       1 <0>         0.3379
     14 O3          1.1433   -4.0449   -0.0781 O.2       1 <0>        -0.2846
     15 N1          1.3977   -2.0591   -1.0578 N.2       1 <0>        -0.3841
     16 C12         1.2766   -0.7554   -1.0281 C.2       1 <0>         0.3488
     17 N2          0.7810   -0.0671    0.0351 N.am      1 <0>        -0.2345
     18 C13         0.3634   -0.7061    1.1487 C.2       1 <0>         0.3699
     19 O4         -0.0844   -0.0888    2.0971 O.2       1 <0>        -0.3108
     20 C14         0.6969    1.3312   -0.0287 C.ar      1 <0>        -0.0112
     21 C15         1.7593    2.1124    0.4039 C.ar      1 <0>        -0.0770
     22 C16         1.6738    3.4897    0.3400 C.ar      1 <0>        -0.1390
     23 C17         0.5314    4.0916   -0.1549 C.ar      1 <0>        -0.0867
     24 C18        -0.5295    3.3178   -0.5876 C.ar      1 <0>        -0.1631
     25 C19        -0.4487    1.9380   -0.5309 C.ar      1 <0>         0.1250
     26 F1         -1.4830    1.1815   -0.9589 F         1 <0>        -0.0951
     27 O5          1.6703   -0.0560   -2.1102 O.3       1 <0>        -0.2536
     28 H1          2.7712   -8.3269    5.7517 H         1 <0>         0.0921
     29 H2          2.5098   -7.1648    7.0743 H         1 <0>         0.0854
     30 H3          1.2047   -8.2764    6.5954 H         1 <0>         0.0871
     31 H4          2.3675   -6.0463    4.8658 H         1 <0>         0.0760
     32 H5          0.8011   -5.9958    5.7096 H         1 <0>         0.0691
     33 H6          0.9728   -4.7069    4.0746 H         1 <0>         0.1388
     34 H7         -1.0602   -4.3584    0.2994 H         1 <0>         0.1425
     35 H8         -1.2028   -6.8046    0.1583 H         1 <0>         0.1494
     36 H9         -1.0968   -8.8496    2.3418 H         1 <0>         0.2260
     37 H10        -0.1849   -2.4049    3.2007 H         1 <0>         0.1555
     38 H11         2.6522    1.6439    0.7907 H         1 <0>         0.1469
     39 H12         2.5006    4.0974    0.6767 H         1 <0>         0.1420
     40 H13         0.4679    5.1686   -0.2039 H         1 <0>         0.1414
     41 H14        -1.4202    3.7908   -0.9740 H         1 <0>         0.1524
     42 H15         2.0200   -0.5618   -2.8565 H         1 <0>         0.2901
@<TRIPOS>BOND
     1    1    2 1
     2    1   28 1
     3    1   29 1
     4    1   30 1
     5    2    3 1
     6    2   31 1
     7    2   32 1
     8    3    4 1
     9    4    9 ar
    10    4    5 ar
    11    5    6 ar
    12    5   33 1
    13    6    7 ar
    14    6   11 1
    15    7    8 ar
    16    7   34 1
    17    8    9 ar
    18    8   35 1
    19    9   10 1
    20   10   36 1
    21   11   12 2
    22   11   37 1
    23   12   18 1
    24   12   13 1
    25   13   14 2
    26   13   15 1
    27   15   16 2
    28   16   17 1
    29   16   27 1
    30   17   18 am
    31   17   20 1
    32   18   19 2
    33   20   25 ar
    34   20   21 ar
    35   21   22 ar
    36   21   38 1
    37   22   23 ar
    38   22   39 1
    39   23   24 ar
    40   23   40 1
    41   24   25 ar
    42   24   41 1
    43   25   26 1
    44   27   42 1
@<TRIPOS>MOLECULE
ZINC03857207
   42    44     0     0     0
SMALL
USER_CHARGES

@<TRIPOS>ATOM
      1 C1          7.7334    3.8247   -7.9042 C.3       1 <0>        -0.2106
      2 C2          6.9375    4.1705   -6.6441 C.3       1 <0>        -0.0186
      3 O1          5.5409    4.0197   -6.9065 O.3       1 <0>        -0.2020
      4 C3          4.6876    4.2903   -5.8827 C.ar      1 <0>         0.0631
      5 C4          5.1834    4.6951   -4.6611 C.ar      1 <0>        -0.1746
      6 C5          4.2997    4.9687   -3.6057 C.ar      1 <0>        -0.0790
      7 C6          2.9165    4.8383   -3.8039 C.ar      1 <0>        -0.0688
      8 C7          2.4328    4.4384   -5.0280 C.ar      1 <0>        -0.1308
      9 C8          3.3102    4.1633   -6.0707 C.ar      1 <0>         0.0703
     10 O2          2.8258    3.7701   -7.2759 O.3       1 <0>        -0.2756
     11 C9          4.8180    5.3940   -2.3061 C.2       1 <0>         0.0825
     12 C10         4.3221    4.8294   -1.1459 C.2       1 <0>        -0.3030
     13 C11         4.6535    5.3808    0.1860 C.2       1 <0>         0.3445
     14 O3          5.3777    6.3555    0.2963 O.2       1 <0>        -0.2973
     15 N1          4.1366    4.7813    1.2708 N.2       1 <0>        -0.3853
     16 C12         3.3560    3.7338    1.1796 C.2       1 <0>         0.3498
     17 N2          2.9978    3.1593   -0.0001 N.am      1 <0>        -0.2347
     18 C13         3.4427    3.6458   -1.1784 C.2       1 <0>         0.3620
     19 O4          3.1251    3.1275   -2.2326 O.2       1 <0>        -0.2953
     20 C14         2.1558    2.0381    0.0078 C.ar      1 <0>        -0.0120
     21 C15         0.7787    2.2020   -0.0471 C.ar      1 <0>        -0.0786
     22 C16        -0.0485    1.0957   -0.0386 C.ar      1 <0>        -0.1392
     23 C17         0.4933   -0.1753    0.0187 C.ar      1 <0>        -0.0861
     24 C18         1.8642   -0.3437    0.0793 C.ar      1 <0>        -0.1624
     25 C19         2.6985    0.7597    0.0712 C.ar      1 <0>         0.1268
     26 F1          4.0384    0.5953    0.1244 F         1 <0>        -0.0940
     27 O5          2.8804    3.1947    2.3190 O.3       1 <0>        -0.2531
     28 H1          7.4414    4.4939   -8.7135 H         1 <0>         0.0872
     29 H2          8.7987    3.9397   -7.7040 H         1 <0>         0.0867
     30 H3          7.5271    2.7940   -8.1927 H         1 <0>         0.0919
     31 H4          7.1437    5.2012   -6.3555 H         1 <0>         0.0704
     32 H5          7.2295    3.5013   -5.8348 H         1 <0>         0.0769
     33 H6          6.2487    4.7980   -4.5161 H         1 <0>         0.1417
     34 H7          2.2323    5.0520   -2.9961 H         1 <0>         0.1362
     35 H8          1.3682    4.3383   -5.1797 H         1 <0>         0.1473
     36 H9          2.6431    4.4999   -7.8835 H         1 <0>         0.2266
     37 H10         5.5882    6.1492   -2.2528 H         1 <0>         0.1665
     38 H11         0.3541    3.1938   -0.0967 H         1 <0>         0.1449
     39 H12        -1.1201    1.2235   -0.0817 H         1 <0>         0.1416
     40 H13        -0.1561   -1.0383    0.0203 H         1 <0>         0.1416
     41 H14         2.2842   -1.3374    0.1285 H         1 <0>         0.1528
     42 H15         3.1454    3.6161    3.1480 H         1 <0>         0.2898
@<TRIPOS>BOND
     1    1    2 1
     2    1   28 1
     3    1   29 1
     4    1   30 1
     5    2    3 1
     6    2   31 1
     7    2   32 1
     8    3    4 1
     9    4    9 ar
    10    4    5 ar
    11    5    6 ar
    12    5   33 1
    13    6    7 ar
    14    6   11 1
    15    7    8 ar
    16    7   34 1
    17    8    9 ar
    18    8   35 1
    19    9   10 1
    20   10   36 1
    21   11   12 2
    22   11   37 1
    23   12   18 1
    24   12   13 1
    25   13   14 2
    26   13   15 1
    27   15   16 2
    28   16   17 1
    29   16   27 1
    30   17   18 am
    31   17   20 1
    32   18   19 2
    33   20   25 ar
    34   20   21 ar
    35   21   22 ar
    36   21   38 1
    37   22   23 ar
    38   22   39 1
    39   23   24 ar
    40   23   40 1
    41   24   25 ar
    42   24   41 1
    43   25   26 1
    44   27   42 1
@<TRIPOS>MOLECULE
ZINC03857236
   39    41     0     0     0
SMALL
USER_CHARGES

@<TRIPOS>ATOM
      1 C1         -7.1412    1.2650    1.3954 C.3       1 <0>        -0.1545
      2 C2         -5.9390    1.8774    0.7239 C.2       1 <0>        -0.0594
      3 C3         -4.8110    1.0298    0.3288 C.ar      1 <0>        -0.0605
      4 C4         -4.8944   -0.3622    0.3279 C.ar      1 <0>        -0.1129
      5 C5         -3.7978   -1.1080   -0.0479 C.ar      1 <0>        -0.1111
      6 C6         -2.6125   -0.4918   -0.4250 C.ar      1 <0>        -0.1175
      7 C7         -2.5073    0.8841   -0.4333 C.ar      1 <0>        -0.0978
      8 C8         -3.6021    1.6533   -0.0593 C.ar      1 <0>        -0.0970
      9 C9         -3.5702    3.1283   -0.0460 C.2       1 <0>         0.1553
     10 N1         -2.4427    3.8054    0.0463 N.2       1 <0>        -0.2284
     11 C10        -1.2667    3.1472    0.2833 C.ar      1 <0>        -0.0153
     12 C11        -0.2728    3.1132   -0.7011 C.ar      1 <0>        -0.0869
     13 C12         0.9106    2.4463   -0.4694 C.ar      1 <0>        -0.2253
     14 C13         1.1303    1.8131    0.7458 C.ar      1 <0>         0.1346
     15 C14         0.1447    1.8450    1.7417 C.ar      1 <0>        -0.1490
     16 C15        -1.0564    2.5150    1.5064 C.ar      1 <0>        -0.0995
     17 C16         0.3761    1.1720    3.0343 C.2       1 <0>         0.3512
     18 O1          1.4234    0.5884    3.2369 O.2       1 <0>        -0.3484
     19 N2         -0.5733    1.2042    3.9904 N.am      1 <0>        -0.4337
     20 O2          2.3006    1.1630    0.9702 O.3       1 <0>        -0.1653
     21 C17         3.2605    1.1710   -0.0884 C.3       1 <0>        -0.0697
     22 N3         -4.8025    3.7553   -0.1311 N.pl3     1 <0>        -0.2713
     23 H1         -4.9024    4.5892   -0.6164 H         1 <0>         0.2827
     24 N4         -5.9042    3.1593    0.4958 N.2       1 <0>        -0.0056
     25 H2         -6.9954    1.2692    2.4756 H         1 <0>         0.0978
     26 H3         -8.0305    1.8440    1.1466 H         1 <0>         0.1024
     27 H4         -7.2671    0.2390    1.0498 H         1 <0>         0.0914
     28 H5         -5.8114   -0.8524    0.6198 H         1 <0>         0.1388
     29 H6         -3.8616   -2.1861   -0.0486 H         1 <0>         0.1358
     30 H7         -1.7647   -1.0949   -0.7146 H         1 <0>         0.1407
     31 H8         -1.5829    1.3585   -0.7281 H         1 <0>         0.1623
     32 H9         -0.4356    3.6076   -1.6474 H         1 <0>         0.1450
     33 H10         1.6719    2.4200   -1.2350 H         1 <0>         0.1427
     34 H11        -1.8200    2.5430    2.2696 H         1 <0>         0.1394
     35 H12        -1.4088    1.6697    3.8287 H         1 <0>         0.2140
     36 H13        -0.4211    0.7618    4.8401 H         1 <0>         0.2296
     37 H14         4.1472    0.6177    0.2210 H         1 <0>         0.1153
     38 H15         2.8298    0.7020   -0.9730 H         1 <0>         0.0629
     39 H16         3.5367    2.1996   -0.3205 H         1 <0>         0.0673
@<TRIPOS>BOND
     1    1    2 1
     2    1   25 1
     3    1   26 1
     4    1   27 1
     5    2   24 2
     6    2    3 1
     7    3    8 ar
     8    3    4 ar
     9    4    5 ar
    10    4   28 1
    11    5    6 ar
    12    5   29 1
    13    6    7 ar
    14    6   30 1
    15    7    8 ar
    16    7   31 1
    17    8    9 1
    18    9   10 2
    19    9   22 1
    20   10   11 1
    21   11   16 ar
    22   11   12 ar
    23   12   13 ar
    24   12   32 1
    25   13   14 ar
    26   13   33 1
    27   14   15 ar
    28   14   20 1
    29   15   16 ar
    30   15   17 1
    31   16   34 1
    32   17   18 2
    33   17   19 am
    34   19   35 1
    35   19   36 1
    36   20   21 1
    37   21   37 1
    38   21   38 1
    39   21   39 1
    40   22   23 1
    41   22   24 1
@<TRIPOS>MOLECULE
ZINC03857261
   41    44     0     0     0
SMALL
USER_CHARGES

@<TRIPOS>ATOM
      1 C1          9.5928    7.2616   -0.6688 C.3       1 <0>        -0.1695
      2 C2          8.2622    7.9690   -0.6590 C.ar      1 <0>        -0.1082
      3 C3          8.2122    9.3497   -0.7578 C.ar      1 <0>        -0.0778
      4 C4          7.0005   10.0120   -0.7597 C.ar      1 <0>        -0.1599
      5 C5          5.8139    9.2969   -0.6473 C.ar      1 <0>         0.0781
      6 C6          5.8682    7.8992   -0.5438 C.ar      1 <0>        -0.1262
      7 C7          7.0951    7.2403   -0.5519 C.ar      1 <0>        -0.0558
      8 C8          4.4699    7.4321   -0.4447 C.2       1 <0>        -0.0164
      9 C9          4.0254    6.1327   -0.3290 C.2       1 <0>        -0.2361
     10 C10         2.6337    5.6039   -0.2194 C.2       1 <0>         0.3038
     11 O1          1.6619    6.3391   -0.2218 O.2       1 <0>        -0.2199
     12 N1          2.5184    4.2987   -0.1256 N.2       1 <0>        -0.3661
     13 C11         3.5670    3.4896   -0.1165 C.2       1 <0>         0.1031
     14 S1          4.9534    4.6051   -0.2677 S.3       1 <0>         0.1864
     15 N2          3.5836    2.1276   -0.0204 N.pl3     1 <0>        -0.1715
     16 C12         4.8472    1.3990   -0.1576 C.3       1 <0>        -0.0677
     17 C13         2.3940    1.4279    0.2090 C.ar      1 <0>         0.0367
     18 C14         1.2232    2.1208    0.4893 C.ar      1 <0>        -0.1330
     19 C15         0.0498    1.4295    0.7160 C.ar      1 <0>        -0.1285
     20 C16         0.0399    0.0431    0.6641 C.ar      1 <0>         0.0576
     21 C17         1.2089   -0.6499    0.3847 C.ar      1 <0>        -0.1367
     22 C18         2.3832    0.0398    0.1577 C.ar      1 <0>        -0.1522
     23 O2         -1.1161   -0.6369    0.8875 O.3       1 <0>        -0.2905
     24 C19         3.6507    8.6643   -0.4905 C.2       1 <0>         0.3417
     25 O3          2.4373    8.7203   -0.4325 O.2       1 <0>        -0.2669
     26 N3          4.4866    9.7101   -0.6084 N.am      1 <0>        -0.3101
     27 H1          9.8663    7.0163   -1.6951 H         1 <0>         0.0870
     28 H2         10.3530    7.9115   -0.2356 H         1 <0>         0.0830
     29 H3          9.5214    6.3452   -0.0830 H         1 <0>         0.0822
     30 H4          9.1296    9.9132   -0.8416 H         1 <0>         0.1377
     31 H5          6.9754   11.0890   -0.8353 H         1 <0>         0.1364
     32 H6          7.1331    6.1637   -0.4745 H         1 <0>         0.1395
     33 H7          5.0082    1.1450   -1.2053 H         1 <0>         0.0932
     34 H8          5.6674    2.0245    0.1947 H         1 <0>         0.0999
     35 H9          4.8061    0.4855    0.4356 H         1 <0>         0.1085
     36 H10         1.2307    3.2000    0.5295 H         1 <0>         0.2117
     37 H11        -0.8616    1.9682    0.9295 H         1 <0>         0.1515
     38 H12         1.2004   -1.7291    0.3451 H         1 <0>         0.1431
     39 H13         3.2931   -0.4998   -0.0601 H         1 <0>         0.1310
     40 H14        -1.6371   -0.8000    0.0893 H         1 <0>         0.2276
     41 H15         4.2005   10.6356   -0.6593 H         1 <0>         0.2535
@<TRIPOS>BOND
     1    1    2 1
     2    1   27 1
     3    1   28 1
     4    1   29 1
     5    2    7 ar
     6    2    3 ar
     7    3    4 ar
     8    3   30 1
     9    4    5 ar
    10    4   31 1
    11    5   26 1
    12    5    6 ar
    13    6    7 ar
    14    6    8 1
    15    7   32 1
    16    8    9 2
    17    8   24 1
    18    9   14 1
    19    9   10 1
    20   10   11 2
    21   10   12 1
    22   12   13 2
    23   13   14 1
    24   13   15 1
    25   15   16 1
    26   15   17 1
    27   16   33 1
    28   16   34 1
    29   16   35 1
    30   17   22 ar
    31   17   18 ar
    32   18   19 ar
    33   18   36 1
    34   19   20 ar
    35   19   37 1
    36   20   21 ar
    37   20   23 1
    38   21   22 ar
    39   21   38 1
    40   22   39 1
    41   23   40 1
    42   24   25 2
    43   24   26 am
    44   26   41 1
@<TRIPOS>MOLECULE
ZINC03857262
   41    44     0     0     0
SMALL
USER_CHARGES

@<TRIPOS>ATOM
      1 C1          7.2558    2.2640   -0.6254 C.3       1 <0>        -0.1687
      2 C2          6.0832    3.1954   -0.4564 C.ar      1 <0>        -0.1103
      3 C3          6.2885    4.5644   -0.4095 C.ar      1 <0>        -0.0786
      4 C4          5.2246    5.4310   -0.2551 C.ar      1 <0>        -0.1638
      5 C5          3.9307    4.9353   -0.1447 C.ar      1 <0>         0.0635
      6 C6          3.7264    3.5485   -0.1922 C.ar      1 <0>        -0.1169
      7 C7          4.8064    2.6831   -0.3474 C.ar      1 <0>        -0.0502
      8 C8          2.2712    3.3348   -0.0518 C.2       1 <0>        -0.0041
      9 C9          1.5967    2.1330   -0.0413 C.2       1 <0>        -0.2591
     10 C10         2.1277    0.7381   -0.0099 C.2       1 <0>         0.3298
     11 O1          3.3232    0.5031    0.0121 O.2       1 <0>        -0.2873
     12 N1          1.2300   -0.2209   -0.0072 N.2       1 <0>        -0.3819
     13 C11        -0.0718    0.0217   -0.0309 C.2       1 <0>         0.0946
     14 S1         -0.1614    1.8050   -0.0623 S.3       1 <0>         0.2563
     15 N2         -1.0999   -0.8771   -0.0312 N.pl3     1 <0>        -0.1646
     16 C12        -2.4845   -0.4062    0.0545 C.3       1 <0>        -0.0708
     17 C13        -0.8309   -2.2476   -0.1134 C.ar      1 <0>         0.0332
     18 C14        -1.8757   -3.1547   -0.2361 C.ar      1 <0>        -0.1505
     19 C15        -1.6090   -4.5067   -0.3215 C.ar      1 <0>        -0.1370
     20 C16        -0.2986   -4.9600   -0.2751 C.ar      1 <0>         0.0582
     21 C17         0.7453   -4.0551   -0.1473 C.ar      1 <0>        -0.1304
     22 C18         0.4808   -2.7024   -0.0666 C.ar      1 <0>        -0.1380
     23 O2         -0.0372   -6.2919   -0.3545 O.3       1 <0>        -0.2902
     24 C19         1.6947    4.6930    0.0686 C.2       1 <0>         0.3417
     25 O3          0.5158    4.9619    0.1977 O.2       1 <0>        -0.3181
     26 N3          2.7066    5.5759    0.0139 N.am      1 <0>        -0.3035
     27 H1          7.6452    1.9885    0.3547 H         1 <0>         0.0873
     28 H2          6.9339    1.3667   -1.1539 H         1 <0>         0.0893
     29 H3          8.0366    2.7632   -1.1993 H         1 <0>         0.0779
     30 H4          7.2906    4.9580   -0.4949 H         1 <0>         0.1355
     31 H5          5.3982    6.4964   -0.2204 H         1 <0>         0.1328
     32 H6          4.6454    1.6158   -0.3835 H         1 <0>         0.1926
     33 H7         -2.8735   -0.2369   -0.9495 H         1 <0>         0.0955
     34 H8         -3.0931   -1.1572    0.5581 H         1 <0>         0.1084
     35 H9         -2.5170    0.5258    0.6187 H         1 <0>         0.1050
     36 H10        -2.8960   -2.8023   -0.2685 H         1 <0>         0.1320
     37 H11        -2.4210   -5.2118   -0.4211 H         1 <0>         0.1436
     38 H12         1.7650   -4.4089   -0.1105 H         1 <0>         0.1502
     39 H13         1.2935   -1.9981    0.0326 H         1 <0>         0.2175
     40 H14        -0.0148   -6.7401    0.5020 H         1 <0>         0.2271
     41 H15         2.5966    6.5378    0.0733 H         1 <0>         0.2522
@<TRIPOS>BOND
     1    1    2 1
     2    1   27 1
     3    1   28 1
     4    1   29 1
     5    2    7 ar
     6    2    3 ar
     7    3    4 ar
     8    3   30 1
     9    4    5 ar
    10    4   31 1
    11    5   26 1
    12    5    6 ar
    13    6    7 ar
    14    6    8 1
    15    7   32 1
    16    8    9 2
    17    8   24 1
    18    9   14 1
    19    9   10 1
    20   10   11 2
    21   10   12 1
    22   12   13 2
    23   13   14 1
    24   13   15 1
    25   15   16 1
    26   15   17 1
    27   16   33 1
    28   16   34 1
    29   16   35 1
    30   17   22 ar
    31   17   18 ar
    32   18   19 ar
    33   18   36 1
    34   19   20 ar
    35   19   37 1
    36   20   21 ar
    37   20   23 1
    38   21   22 ar
    39   21   38 1
    40   22   39 1
    41   23   40 1
    42   24   25 2
    43   24   26 am
    44   26   41 1
@<TRIPOS>MOLECULE
ZINC03857263
   39    41     0     0     0
SMALL
USER_CHARGES

@<TRIPOS>ATOM
      1 C1         -4.0466    6.3965   -1.6552 C.3       1 <0>        -0.0619
      2 O1         -3.5317    6.1558   -0.3441 O.3       1 <0>        -0.2148
      3 C2         -2.3637    5.4643   -0.2568 C.ar      1 <0>         0.0725
      4 C3         -1.8096    5.1970    0.9872 C.ar      1 <0>        -0.1475
      5 C4         -0.6253    4.4961    1.0810 C.ar      1 <0>        -0.1240
      6 C5          0.0164    4.0553   -0.0787 C.ar      1 <0>        -0.0151
      7 C6         -0.5425    4.3315   -1.3287 C.ar      1 <0>        -0.1237
      8 C7         -1.7301    5.0281   -1.4119 C.ar      1 <0>        -0.2092
      9 N1          1.1918    3.3601    0.0092 N.2       1 <0>        -0.2390
     10 C8          1.1797    2.0372    0.0054 C.2       1 <0>         0.2249
     11 N2         -0.0166    1.3487    0.0244 N.pl3     1 <0>        -0.3136
     12 H1         -0.8594    1.8286    0.0364 H         1 <0>         0.2553
     13 C9          0.0015   -0.0038    0.0205 C.2       1 <0>         0.2005
     14 N3          1.1429   -0.6430   -0.0012 N.2       1 <0>        -0.3275
     15 C10         2.3063    0.0243   -0.0197 C.2       1 <0>         0.2734
     16 N4          2.3302    1.3468   -0.0165 N.2       1 <0>        -0.3025
     17 N5          3.4889   -0.6751   -0.0426 N.pl3     1 <0>        -0.3505
     18 C11        -1.2933   -0.7746    0.0415 C.3       1 <0>        -0.2564
     19 S1         -1.0712   -2.3509   -0.8201 S.3       1 <0>         0.3573
     20 C12        -2.6903   -3.0244   -0.6481 C.ar      1 <0>        -0.0890
     21 N6         -3.6150   -2.3291   -0.0011 N.ar      1 <0>        -0.2421
     22 C13        -4.8414   -2.8037    0.1408 C.ar      1 <0>         0.0073
     23 C14        -5.1504   -4.0478   -0.3866 C.ar      1 <0>        -0.2638
     24 C15        -4.1582   -4.7507   -1.0523 C.ar      1 <0>         0.0084
     25 N7         -2.9533   -4.2168   -1.1639 N.ar      1 <0>        -0.1886
     26 H2         -3.3216    6.9725   -2.2303 H         1 <0>         0.0697
     27 H3         -4.2318    5.4447   -2.1532 H         1 <0>         0.0637
     28 H4         -4.9793    6.9558   -1.5823 H         1 <0>         0.1061
     29 H5         -2.3068    5.5379    1.8833 H         1 <0>         0.1424
     30 H6         -0.1951    4.2882    2.0496 H         1 <0>         0.1443
     31 H7         -0.0477    3.9966   -2.2284 H         1 <0>         0.1406
     32 H8         -2.1654    5.2383   -2.3777 H         1 <0>         0.1340
     33 H9          3.4788   -1.6450   -0.0454 H         1 <0>         0.2431
     34 H10         4.3338   -0.1988   -0.0561 H         1 <0>         0.2504
     35 H11        -1.5872   -0.9632    1.0740 H         1 <0>         0.1512
     36 H12        -2.0697   -0.1943   -0.4571 H         1 <0>         0.1340
     37 H13        -5.5918   -2.2306    0.6651 H         1 <0>         0.1687
     38 H14        -6.1427   -4.4608   -0.2809 H         1 <0>         0.1488
     39 H15        -4.3665   -5.7227   -1.4744 H         1 <0>         0.1722
@<TRIPOS>BOND
     1    1    2 1
     2    1   26 1
     3    1   27 1
     4    1   28 1
     5    2    3 1
     6    3    8 ar
     7    3    4 ar
     8    4    5 ar
     9    4   29 1
    10    5    6 ar
    11    5   30 1
    12    6    7 ar
    13    6    9 1
    14    7    8 ar
    15    7   31 1
    16    8   32 1
    17    9   10 2
    18   10   16 1
    19   10   11 1
    20   11   12 1
    21   11   13 1
    22   13   14 2
    23   13   18 1
    24   14   15 1
    25   15   16 2
    26   15   17 1
    27   17   33 1
    28   17   34 1
    29   18   19 1
    30   18   35 1
    31   18   36 1
    32   19   20 1
    33   20   25 ar
    34   20   21 ar
    35   21   22 ar
    36   22   23 ar
    37   22   37 1
    38   23   24 ar
    39   23   38 1
    40   24   25 ar
    41   24   39 1
@<TRIPOS>MOLECULE
ZINC03857449
   46    48     0     0     0
SMALL
USER_CHARGES

@<TRIPOS>ATOM
      1 C1         -0.0238    1.0717    0.0649 C.ar      1 <0>        -0.0959
      2 C2         -1.2318    1.7461    0.0492 C.ar      1 <0>        -0.1330
      3 C3         -1.2554    3.1254    0.0596 C.ar      1 <0>        -0.1063
      4 C4         -0.0569    3.8407    0.0752 C.ar      1 <0>        -0.1284
      5 C5          1.1583    3.1542    0.0857 C.ar      1 <0>        -0.0573
      6 C6          1.1678    1.7746    0.0805 C.ar      1 <0>        -0.1341
      7 C7         -0.0746    5.3190    0.0812 C.2       1 <0>         0.3515
      8 O1          0.9707    5.9393    0.0953 O.2       1 <0>        -0.3355
      9 N1         -1.2497    5.9789    0.0711 N.am      1 <0>        -0.3032
     10 N2         -1.2664    7.3798    0.0768 N.pl3     1 <0>        -0.1526
     11 C8         -2.4400    8.0389    0.0667 C.2       1 <0>         0.1477
     12 C9         -2.4601    9.4209    0.1790 C.2       1 <0>        -0.3935
     13 C10        -3.7223   10.1627    0.3006 C.2       1 <0>         0.2850
     14 N3         -3.6720   11.4803    0.4088 N.2       1 <0>        -0.3564
     15 C11        -2.5203   12.1458    0.4001 C.2       1 <0>         0.3859
     16 O2         -2.5556   13.3597    0.4985 O.2       1 <0>        -0.3431
     17 N4         -1.3224   11.5532    0.2886 N.am      1 <0>        -0.3154
     18 C12        -1.2163   10.2119    0.1754 C.2       1 <0>         0.3835
     19 O3         -0.1293    9.6737    0.0741 O.2       1 <0>        -0.3871
     20 C13        -0.1094   12.3746    0.2891 C.3       1 <0>         0.0380
     21 C14        -0.0226   13.1554    1.6020 C.3       1 <0>        -0.1781
     22 C15         1.2443   14.0132    1.6025 C.3       1 <0>        -0.1537
     23 C16         1.1971   14.9932    0.4285 C.3       1 <0>        -0.1605
     24 C17         1.1104   14.2124   -0.8844 C.3       1 <0>        -0.1537
     25 C18        -0.1565   13.3546   -0.8849 C.3       1 <0>        -0.1782
     26 O4         -4.9058    9.5143    0.3069 O.3       1 <0>        -0.2551
     27 H1         -0.0109   -0.0082    0.0606 H         1 <0>         0.1376
     28 H2         -2.1584    1.1914    0.0330 H         1 <0>         0.1374
     29 H3         -2.1990    3.6506    0.0518 H         1 <0>         0.1190
     30 H4          2.0891    3.7017    0.0982 H         1 <0>         0.1616
     31 H5          2.1074    1.2422    0.0882 H         1 <0>         0.1425
     32 H6         -2.0838    5.4840    0.0599 H         1 <0>         0.2531
     33 H7         -0.4323    7.8748    0.0880 H         1 <0>         0.3278
     34 H8         -3.3661    7.4914   -0.0288 H         1 <0>         0.1664
     35 H9          0.7650   11.7313    0.1905 H         1 <0>         0.1263
     36 H10        -0.8970   13.7987    1.7006 H         1 <0>         0.1230
     37 H11         0.0110   12.4572    2.4384 H         1 <0>         0.0801
     38 H12         2.1187   13.3699    1.5039 H         1 <0>         0.0777
     39 H13         1.3061   14.5694    2.5379 H         1 <0>         0.0815
     40 H14         2.0997   15.6043    0.4289 H         1 <0>         0.0754
     41 H15         0.3227   15.6365    0.5272 H         1 <0>         0.0905
     42 H16         1.9848   13.5691   -0.9830 H         1 <0>         0.0776
     43 H17         1.0768   14.9106   -1.7208 H         1 <0>         0.0815
     44 H18        -0.2183   12.7984   -1.8203 H         1 <0>         0.0799
     45 H19        -1.0309   13.9979   -0.7863 H         1 <0>         0.1231
     46 H20        -5.6730   10.0970    0.3915 H         1 <0>         0.2677
@<TRIPOS>BOND
     1    1    6 ar
     2    1    2 ar
     3    1   27 1
     4    2    3 ar
     5    2   28 1
     6    3    4 ar
     7    3   29 1
     8    4    5 ar
     9    4    7 1
    10    5    6 ar
    11    5   30 1
    12    6   31 1
    13    7    8 2
    14    7    9 am
    15    9   10 1
    16    9   32 1
    17   10   11 1
    18   10   33 1
    19   11   12 2
    20   11   34 1
    21   12   18 1
    22   12   13 1
    23   13   14 2
    24   13   26 1
    25   14   15 1
    26   15   16 2
    27   15   17 am
    28   17   18 am
    29   17   20 1
    30   18   19 2
    31   20   25 1
    32   20   21 1
    33   20   35 1
    34   21   22 1
    35   21   36 1
    36   21   37 1
    37   22   23 1
    38   22   38 1
    39   22   39 1
    40   23   24 1
    41   23   40 1
    42   23   41 1
    43   24   25 1
    44   24   42 1
    45   24   43 1
    46   25   44 1
    47   25   45 1
    48   26   46 1
@<TRIPOS>MOLECULE
ZINC03857518
   42    43     0     0     0
SMALL
USER_CHARGES

@<TRIPOS>ATOM
      1 C1          4.0255    5.6422   10.8098 C.3       1 <0>        -0.2086
      2 C2          4.8602    6.0370    9.5898 C.3       1 <0>        -0.1658
      3 C3          4.1869    5.5128    8.3199 C.3       1 <0>        -0.1464
      4 C4          5.0216    5.9076    7.0999 C.3       1 <0>        -0.1773
      5 C5          4.3584    5.3913    5.8491 C.2       1 <0>         0.3000
      6 O1          3.3204    4.7688    5.9258 O.2       1 <0>        -0.3308
      7 N1          4.9189    5.6212    4.6451 N.am      1 <0>        -0.3084
      8 N2          4.3024    5.1412    3.4822 N.pl3     1 <0>        -0.1535
      9 C6          4.8621    5.3709    2.2798 C.2       1 <0>         0.1487
     10 C7          4.2002    4.9891    1.1226 C.2       1 <0>        -0.3929
     11 C8          4.7147    5.3416   -0.2076 C.2       1 <0>         0.2863
     12 N3          4.0356    4.9463   -1.2720 N.2       1 <0>        -0.3500
     13 C9          2.9128    4.2405   -1.1708 C.2       1 <0>         0.3832
     14 O2          2.3465    3.9085   -2.1973 O.2       1 <0>        -0.3218
     15 N4          2.3675    3.8788   -0.0002 N.am      1 <0>        -0.2761
     16 C10         2.9494    4.2111    1.1720 C.2       1 <0>         0.3864
     17 O3          2.4570    3.8794    2.2346 O.2       1 <0>        -0.3709
     18 C11         1.1767    3.1385    0.0063 C.ar      1 <0>         0.0229
     19 C12        -0.0479    3.7911    0.0356 C.ar      1 <0>        -0.0769
     20 C13        -1.2195    3.0594    0.0425 C.ar      1 <0>        -0.1409
     21 C14        -1.1746    1.6776    0.0150 C.ar      1 <0>        -0.0939
     22 C15         0.0428    1.0227   -0.0089 C.ar      1 <0>        -0.1649
     23 C16         1.2199    1.7491   -0.0160 C.ar      1 <0>         0.1250
     24 F1          2.4095    1.1095   -0.0450 F         1 <0>        -0.0986
     25 O4          5.8544    6.0522   -0.3407 O.3       1 <0>        -0.2538
     26 H1          3.0283    6.0735   10.7227 H         1 <0>         0.0774
     27 H2          3.9484    4.5561   10.8612 H         1 <0>         0.0777
     28 H3          4.5052    6.0156   11.7145 H         1 <0>         0.0753
     29 H4          5.8574    5.6056    9.6769 H         1 <0>         0.0784
     30 H5          4.9373    7.1230    9.5384 H         1 <0>         0.0783
     31 H6          3.1897    5.9441    8.2328 H         1 <0>         0.1028
     32 H7          4.1098    4.4267    8.3713 H         1 <0>         0.1032
     33 H8          6.0189    5.4762    7.1870 H         1 <0>         0.1047
     34 H9          5.0988    6.9936    7.0485 H         1 <0>         0.1044
     35 H10         5.7492    6.1191    4.5838 H         1 <0>         0.2504
     36 H11         3.4721    4.6434    3.5436 H         1 <0>         0.3275
     37 H12         5.8267    5.8525    2.2164 H         1 <0>         0.1677
     38 H13        -0.0847    4.8704    0.0527 H         1 <0>         0.1433
     39 H14        -2.1723    3.5675    0.0653 H         1 <0>         0.1364
     40 H15        -2.0925    1.1085    0.0163 H         1 <0>         0.1358
     41 H16         0.0746   -0.0567   -0.0266 H         1 <0>         0.1470
     42 H17         6.1026    6.2292   -1.2584 H         1 <0>         0.2687
@<TRIPOS>BOND
     1    1    2 1
     2    1   26 1
     3    1   27 1
     4    1   28 1
     5    2    3 1
     6    2   29 1
     7    2   30 1
     8    3    4 1
     9    3   31 1
    10    3   32 1
    11    4    5 1
    12    4   33 1
    13    4   34 1
    14    5    6 2
    15    5    7 am
    16    7    8 1
    17    7   35 1
    18    8    9 1
    19    8   36 1
    20    9   10 2
    21    9   37 1
    22   10   16 1
    23   10   11 1
    24   11   12 2
    25   11   25 1
    26   12   13 1
    27   13   14 2
    28   13   15 am
    29   15   16 am
    30   15   18 1
    31   16   17 2
    32   18   23 ar
    33   18   19 ar
    34   19   20 ar
    35   19   38 1
    36   20   21 ar
    37   20   39 1
    38   21   22 ar
    39   21   40 1
    40   22   23 ar
    41   22   41 1
    42   23   24 1
    43   25   42 1
@<TRIPOS>MOLECULE
ZINC03857661
   41    44     0     0     0
SMALL
USER_CHARGES

@<TRIPOS>ATOM
      1 C1        -10.1217    0.3793   -4.7662 C.ar      1 <0>        -0.1212
      2 C2         -9.3486    1.2124   -3.9611 C.ar      1 <0>        -0.1387
      3 C3         -7.9905    1.2368   -4.0790 C.ar      1 <0>        -0.1008
      4 C4         -7.3632    0.4140   -5.0214 C.ar      1 <0>        -0.0641
      5 C5         -8.1461   -0.4344   -5.8419 C.ar      1 <0>        -0.0233
      6 C6         -9.5439   -0.4338   -5.6930 C.ar      1 <0>        -0.1258
      7 C7         -7.5124   -1.2583   -6.7871 C.ar      1 <0>        -0.1456
      8 C8         -6.1574   -1.2483   -6.9206 C.ar      1 <0>        -0.1090
      9 C9         -5.3509   -0.4301   -6.1426 C.ar      1 <0>        -0.1749
     10 C10        -5.9099    0.4075   -5.1830 C.ar      1 <0>         0.0343
     11 N1         -5.1213    1.2081   -4.4146 N.2       1 <0>        -0.2257
     12 C11        -4.5733    0.7315   -3.3074 C.2       1 <0>         0.2268
     13 N2         -4.8819   -0.5383   -2.8653 N.pl3     1 <0>        -0.3365
     14 H1         -5.5030   -1.0960   -3.3596 H         1 <0>         0.2506
     15 C12        -4.2979   -0.9955   -1.7197 C.2       1 <0>         0.3157
     16 N3         -3.4493   -0.2191   -1.0638 N.2       1 <0>        -0.3744
     17 C13        -3.1672    1.0024   -1.4999 C.2       1 <0>         0.1719
     18 N4         -3.7104    1.4776   -2.6000 N.2       1 <0>        -0.2403
     19 C14        -2.2013    1.8594   -0.7230 C.3       1 <0>        -0.0948
     20 H2         -2.4363    2.8234   -0.8476 H         1 <0>         0.1376
     21 C15        -2.2511    1.4865    0.7732 C.3       1 <0>        -0.1614
     22 C16        -0.7721    1.6020    1.2328 C.3       1 <0>        -0.1638
     23 C17        -0.0034    1.0724   -0.0032 C.3       1 <0>        -0.2127
     24 C18        -0.7852    1.5997   -1.1932 C.2       1 <0>         0.2473
     25 O1         -0.3573    1.7785   -2.3082 O.2       1 <0>        -0.2423
     26 N5         -4.5829   -2.2475   -1.2557 N.pl3     1 <0>        -0.3730
     27 H3        -11.1958    0.3778   -4.6533 H         1 <0>         0.1264
     28 H4         -9.8315    1.8480   -3.2337 H         1 <0>         0.1285
     29 H5         -7.4023    1.8876   -3.4490 H         1 <0>         0.1470
     30 H6        -10.1560   -1.0748   -6.3101 H         1 <0>         0.1313
     31 H7         -8.1063   -1.9068   -7.4142 H         1 <0>         0.1290
     32 H8         -5.6977   -1.8920   -7.6559 H         1 <0>         0.1263
     33 H9         -4.2799   -0.4464   -6.2806 H         1 <0>         0.1418
     34 H10        -2.8784    2.1888    1.3222 H         1 <0>         0.0921
     35 H11        -2.6158    0.4674    0.9019 H         1 <0>         0.1211
     36 H12        -0.5844    0.9747    2.1042 H         1 <0>         0.0940
     37 H13        -0.5094    2.6400    1.4372 H         1 <0>         0.0911
     38 H14         0.0221    0.0731    0.0232 H         1 <0>         0.1116
     39 H15         1.0147    1.4616   -0.0139 H         1 <0>         0.1083
     40 H16        -5.2023   -2.8151   -1.7406 H         1 <0>         0.2368
     41 H17        -4.1661   -2.5694   -0.4411 H         1 <0>         0.2586
@<TRIPOS>BOND
     1    1    6 ar
     2    1    2 ar
     3    1   27 1
     4    2    3 ar
     5    2   28 1
     6    3    4 ar
     7    3   29 1
     8    4   10 ar
     9    4    5 ar
    10    5    6 ar
    11    5    7 ar
    12    6   30 1
    13    7    8 ar
    14    7   31 1
    15    8    9 ar
    16    8   32 1
    17    9   10 ar
    18    9   33 1
    19   10   11 1
    20   11   12 2
    21   12   18 1
    22   12   13 1
    23   13   14 1
    24   13   15 1
    25   15   16 2
    26   15   26 1
    27   16   17 1
    28   17   18 2
    29   17   19 1
    30   19   20 1
    31   19   24 1
    32   19   21 1
    33   21   22 1
    34   21   34 1
    35   21   35 1
    36   22   23 1
    37   22   36 1
    38   22   37 1
    39   23   24 1
    40   23   38 1
    41   23   39 1
    42   24   25 2
    43   26   40 1
    44   26   41 1
@<TRIPOS>MOLECULE
ZINC03857662
   41    44     0     0     0
SMALL
USER_CHARGES

@<TRIPOS>ATOM
      1 C1         10.7193    1.8972   -0.7776 C.ar      1 <0>        -0.1212
      2 C2          9.4493    2.2251   -1.2461 C.ar      1 <0>        -0.1379
      3 C3          8.4831    1.2720   -1.3757 C.ar      1 <0>        -0.1022
      4 C4          8.7697   -0.0545   -1.0337 C.ar      1 <0>        -0.0653
      5 C5         10.0582   -0.3905   -0.5510 C.ar      1 <0>        -0.0231
      6 C6         11.0282    0.6189   -0.4244 C.ar      1 <0>        -0.1257
      7 C7         10.3439   -1.7244   -0.2149 C.ar      1 <0>        -0.1457
      8 C8          9.3945   -2.6921   -0.3429 C.ar      1 <0>        -0.1092
      9 C9          8.1173   -2.4085   -0.8049 C.ar      1 <0>        -0.1733
     10 C10         7.7648   -1.1096   -1.1565 C.ar      1 <0>         0.0341
     11 N1          6.5127   -0.8278   -1.6105 N.2       1 <0>        -0.2254
     12 C11         5.5799   -0.4139   -0.7666 C.2       1 <0>         0.2268
     13 N2          5.8319   -0.3742    0.5892 N.pl3     1 <0>        -0.3361
     14 H1          6.6939   -0.6483    0.9395 H         1 <0>         0.2506
     15 C12         4.8465    0.0581    1.4285 C.2       1 <0>         0.3158
     16 N3          3.6776    0.4278    0.9284 N.2       1 <0>        -0.3743
     17 C13         3.4514    0.3836   -0.3788 C.2       1 <0>         0.1719
     18 N4          4.3751   -0.0321   -1.2185 N.2       1 <0>        -0.2408
     19 C14         2.1081    0.8120   -0.9110 C.3       1 <0>        -0.0949
     20 H2          2.2181    1.1848   -1.8324 H         1 <0>         0.1375
     21 C15         1.4842    1.8701    0.0225 C.3       1 <0>        -0.1615
     22 C16        -0.0257    1.5205    0.0184 C.3       1 <0>        -0.1642
     23 C17        -0.0067   -0.0277   -0.0219 C.3       1 <0>        -0.2125
     24 C18         1.1595   -0.3684   -0.9326 C.2       1 <0>         0.2472
     25 O1          1.3037   -1.3910   -1.5585 O.2       1 <0>        -0.2418
     26 N5          5.0647    0.1094    2.7752 N.pl3     1 <0>        -0.3728
     27 H3         11.4675    2.6704   -0.6838 H         1 <0>         0.1264
     28 H4          9.2267    3.2484   -1.5100 H         1 <0>         0.1286
     29 H5          7.5022    1.5390   -1.7405 H         1 <0>         0.1468
     30 H6         12.0172    0.3794   -0.0626 H         1 <0>         0.1314
     31 H7         11.3267   -1.9850    0.1492 H         1 <0>         0.1290
     32 H8          9.6426   -3.7091   -0.0770 H         1 <0>         0.1262
     33 H9          7.3909   -3.2028   -0.8926 H         1 <0>         0.1418
     34 H10         1.6462    2.8728   -0.3729 H         1 <0>         0.0922
     35 H11         1.8947    1.7831    1.0284 H         1 <0>         0.1213
     36 H12        -0.5149    1.9254   -0.8675 H         1 <0>         0.0910
     37 H13        -0.5090    1.8788    0.9273 H         1 <0>         0.0938
     38 H14         0.1153   -0.3838    0.9046 H         1 <0>         0.1117
     39 H15        -0.9390   -0.4092   -0.4383 H         1 <0>         0.1085
     40 H16         4.3622    0.4175    3.3690 H         1 <0>         0.2586
     41 H17         5.9222   -0.1622    3.1383 H         1 <0>         0.2368
@<TRIPOS>BOND
     1    1    6 ar
     2    1    2 ar
     3    1   27 1
     4    2    3 ar
     5    2   28 1
     6    3    4 ar
     7    3   29 1
     8    4   10 ar
     9    4    5 ar
    10    5    6 ar
    11    5    7 ar
    12    6   30 1
    13    7    8 ar
    14    7   31 1
    15    8    9 ar
    16    8   32 1
    17    9   10 ar
    18    9   33 1
    19   10   11 1
    20   11   12 2
    21   12   18 1
    22   12   13 1
    23   13   14 1
    24   13   15 1
    25   15   16 2
    26   15   26 1
    27   16   17 1
    28   17   18 2
    29   17   19 1
    30   19   20 1
    31   19   24 1
    32   19   21 1
    33   21   22 1
    34   21   34 1
    35   21   35 1
    36   22   23 1
    37   22   36 1
    38   22   37 1
    39   23   24 1
    40   23   38 1
    41   23   39 1
    42   24   25 2
    43   26   40 1
    44   26   41 1
@<TRIPOS>MOLECULE
ZINC03857800
   46    49     0     0     0
SMALL
USER_CHARGES

@<TRIPOS>ATOM
      1 C1         -4.3388    0.8492   -5.7542 C.3       1 <0>        -0.0513
      2 N1         -4.2007   -0.0115   -4.5768 N.am      1 <0>        -0.2375
      3 C2         -3.4859    0.4314   -3.4755 C.2       1 <0>         0.1307
      4 C3         -3.3702   -0.4056   -2.3709 C.2       1 <0>        -0.2815
      5 C4         -3.9794   -1.6725   -2.4028 C.2       1 <0>         0.3904
      6 O1         -3.8906   -2.4227   -1.4464 O.2       1 <0>        -0.3848
      7 N2         -4.6631   -2.0489   -3.5032 N.am      1 <0>        -0.3361
      8 H1         -5.0978   -2.9491   -3.5289 H         1 <0>         0.2809
      9 C5         -4.7688   -1.2321   -4.5656 C.2       1 <0>         0.4096
     10 O2         -5.3926   -1.6050   -5.5406 O.2       1 <0>        -0.3846
     11 N3         -2.6147    0.2862   -1.4336 N.pl3     1 <0>        -0.1347
     12 C6         -2.3114    1.4901   -1.9870 C.2       1 <0>         0.2127
     13 N4         -2.8292    1.5586   -3.1967 N.2       1 <0>        -0.2613
     14 N5         -1.5752    2.4814   -1.3799 N.pl3     1 <0>        -0.3481
     15 C7         -1.4096    3.7791   -2.0394 C.3       1 <0>         0.0200
     16 C8         -0.6175    4.7175   -1.1268 C.3       1 <0>        -0.0226
     17 O3          0.7086    4.2121   -0.9594 O.3       1 <0>        -0.3486
     18 C9         -2.2252   -0.1874   -0.1031 C.3       1 <0>         0.0258
     19 C10        -0.8480   -0.7956   -0.1697 C.ar      1 <0>        -0.1162
     20 C11        -0.6638   -2.0095   -0.7576 C.ar      1 <0>        -0.0807
     21 C12         0.6020   -2.5874   -0.8289 C.ar      1 <0>        -0.1295
     22 C13         1.6913   -1.9549   -0.3128 C.ar      1 <0>        -0.1024
     23 C14         1.5404   -0.7004    0.3017 C.ar      1 <0>        -0.0395
     24 C15         0.2526   -0.1125    0.3744 C.ar      1 <0>        -0.0150
     25 C16         0.1020    1.1426    0.9888 C.ar      1 <0>        -0.1441
     26 C17         1.1912    1.7750    1.5043 C.ar      1 <0>        -0.1037
     27 C18         2.4574    1.1969    1.4328 C.ar      1 <0>        -0.1325
     28 C19         2.6415   -0.0168    0.8454 C.ar      1 <0>        -0.0997
     29 H2         -3.5143    0.6597   -6.4415 H         1 <0>         0.0855
     30 H3         -5.2840    0.6342   -6.2526 H         1 <0>         0.1094
     31 H4         -4.3208    1.8941   -5.4445 H         1 <0>         0.1022
     32 H5         -1.1658    2.3211   -0.5152 H         1 <0>         0.2516
     33 H6         -0.8707    3.6439   -2.9772 H         1 <0>         0.1094
     34 H7         -2.3895    4.2111   -2.2424 H         1 <0>         0.0986
     35 H8         -0.5741    5.7098   -1.5758 H         1 <0>         0.0767
     36 H9         -1.1081    4.7794   -0.1554 H         1 <0>         0.0610
     37 H10         1.2688    4.7582   -0.3910 H         1 <0>         0.2132
     38 H11        -2.9378   -0.9382    0.2383 H         1 <0>         0.1443
     39 H12        -2.2189    0.6510    0.5935 H         1 <0>         0.0991
     40 H13        -1.5116   -2.5326   -1.1747 H         1 <0>         0.1564
     41 H14         0.7206   -3.5517   -1.3004 H         1 <0>         0.1345
     42 H15         2.6663   -2.4151   -0.3750 H         1 <0>         0.1341
     43 H16        -0.8724    1.6047    1.0476 H         1 <0>         0.1214
     44 H17         1.0726    2.7395    1.9756 H         1 <0>         0.1233
     45 H18         3.3053    1.7202    1.8495 H         1 <0>         0.1290
     46 H19         3.6285   -0.4526    0.7976 H         1 <0>         0.1345
@<TRIPOS>BOND
     1    1    2 1
     2    1   29 1
     3    1   30 1
     4    1   31 1
     5    2    9 am
     6    2    3 1
     7    3   13 1
     8    3    4 2
     9    4    5 1
    10    4   11 1
    11    5    6 2
    12    5    7 am
    13    7    8 1
    14    7    9 am
    15    9   10 2
    16   11   12 1
    17   11   18 1
    18   12   13 2
    19   12   14 1
    20   14   15 1
    21   14   32 1
    22   15   16 1
    23   15   33 1
    24   15   34 1
    25   16   17 1
    26   16   35 1
    27   16   36 1
    28   17   37 1
    29   18   19 1
    30   18   38 1
    31   18   39 1
    32   19   24 ar
    33   19   20 ar
    34   20   21 ar
    35   20   40 1
    36   21   22 ar
    37   21   41 1
    38   22   23 ar
    39   22   42 1
    40   23   28 ar
    41   23   24 ar
    42   24   25 ar
    43   25   26 ar
    44   25   43 1
    45   26   27 ar
    46   26   44 1
    47   27   28 ar
    48   27   45 1
    49   28   46 1
@<TRIPOS>MOLECULE
ZINC03857800
   47    50     0     0     0
SMALL
USER_CHARGES

@<TRIPOS>ATOM
      1 C1         -4.3388    0.8492   -5.7542 C.3       1 <0>        -0.0687
      2 N1         -4.2007   -0.0115   -4.5768 N.am      1 <0>        -0.2461
      3 C2         -3.4859    0.4314   -3.4755 C.2       1 <0>         0.1290
      4 C3         -3.3702   -0.4056   -2.3709 C.2       1 <0>        -0.1818
      5 C4         -3.9794   -1.6725   -2.4028 C.2       1 <0>         0.3803
      6 O1         -3.8906   -2.4227   -1.4464 O.2       1 <0>        -0.3126
      7 N2         -4.6631   -2.0489   -3.5032 N.am      1 <0>        -0.3245
      8 H1         -5.0978   -2.9491   -3.5289 H         1 <0>         0.3098
      9 C5         -4.7688   -1.2321   -4.5656 C.2       1 <0>         0.4097
     10 O2         -5.3926   -1.6050   -5.5406 O.2       1 <0>        -0.3123
     11 N3         -2.6147    0.2862   -1.4336 N.pl3     1 <0>        -0.0825
     12 C6         -2.3114    1.4901   -1.9870 C.cat     1 <0>         0.2608
     13 N4         -1.5752    2.4814   -1.3799 N.pl3     1 <0>        -0.3171
     14 C7         -1.4096    3.7791   -2.0394 C.3       1 <0>        -0.0187
     15 C8         -0.6175    4.7175   -1.1268 C.3       1 <0>        -0.0115
     16 O3          0.7086    4.2121   -0.9594 O.3       1 <0>        -0.3543
     17 C9         -2.2252   -0.1874   -0.1031 C.3       1 <0>         0.0244
     18 C10        -0.8480   -0.7956   -0.1697 C.ar      1 <0>        -0.1594
     19 C11        -0.6638   -2.0095   -0.7576 C.ar      1 <0>        -0.0638
     20 C12         0.6020   -2.5874   -0.8289 C.ar      1 <0>        -0.1385
     21 C13         1.6913   -1.9549   -0.3128 C.ar      1 <0>        -0.0679
     22 C14         1.5404   -0.7004    0.3017 C.ar      1 <0>        -0.0436
     23 C15         0.2526   -0.1125    0.3744 C.ar      1 <0>        -0.0107
     24 C16         0.1020    1.1426    0.9888 C.ar      1 <0>        -0.1769
     25 C17         1.1912    1.7750    1.5043 C.ar      1 <0>        -0.0785
     26 C18         2.4574    1.1969    1.4328 C.ar      1 <0>        -0.1280
     27 C19         2.6415   -0.0168    0.8454 C.ar      1 <0>        -0.0814
     28 H2         -3.5143    0.6597   -6.4415 H         1 <0>         0.1083
     29 H3         -5.2840    0.6342   -6.2526 H         1 <0>         0.1501
     30 H4         -4.3208    1.8941   -5.4445 H         1 <0>         0.0787
     31 H5         -1.1658    2.3211   -0.5152 H         1 <0>         0.2910
     32 H6         -0.8707    3.6439   -2.9772 H         1 <0>         0.1096
     33 H7         -2.3895    4.2111   -2.2424 H         1 <0>         0.0991
     34 H8         -0.5741    5.7098   -1.5758 H         1 <0>         0.1026
     35 H9         -1.1081    4.7794   -0.1554 H         1 <0>         0.0787
     36 H10         1.2688    4.7582   -0.3910 H         1 <0>         0.2393
     37 H11        -2.9378   -0.9382    0.2383 H         1 <0>         0.1678
     38 H12        -2.2189    0.6510    0.5935 H         1 <0>         0.1211
     39 H13        -1.5116   -2.5326   -1.1747 H         1 <0>         0.1476
     40 H14         0.7206   -3.5517   -1.3004 H         1 <0>         0.1492
     41 H15         2.6663   -2.4151   -0.3750 H         1 <0>         0.1510
     42 H16        -0.8724    1.6047    1.0476 H         1 <0>         0.1070
     43 H17         1.0726    2.7395    1.9756 H         1 <0>         0.1323
     44 H18         3.3053    1.7202    1.8495 H         1 <0>         0.1458
     45 H19         3.6285   -0.4526    0.7976 H         1 <0>         0.1498
     46 N5         -2.8289    1.5610   -3.1986 N.pl3     1 <0>        -0.1704
     47 H20        -2.7401    2.3635   -3.8330 H         1 <0>         0.3065
@<TRIPOS>BOND
     1    1    2 1
     2    1   28 1
     3    1   29 1
     4    1   30 1
     5    2    9 am
     6    2    3 1
     7    3    4 2
     8    3   46 1
     9    4    5 1
    10    4   11 1
    11    5    6 2
    12    5    7 am
    13    7    8 1
    14    7    9 am
    15    9   10 2
    16   11   12 1
    17   11   17 1
    18   12   13 1
    19   12   46 2
    20   13   14 1
    21   13   31 1
    22   14   15 1
    23   14   32 1
    24   14   33 1
    25   15   16 1
    26   15   34 1
    27   15   35 1
    28   16   36 1
    29   17   18 1
    30   17   37 1
    31   17   38 1
    32   18   23 ar
    33   18   19 ar
    34   19   20 ar
    35   19   39 1
    36   20   21 ar
    37   20   40 1
    38   21   22 ar
    39   21   41 1
    40   22   27 ar
    41   22   23 ar
    42   23   24 ar
    43   24   25 ar
    44   24   42 1
    45   25   26 ar
    46   25   43 1
    47   26   27 ar
    48   26   44 1
    49   27   45 1
    50   46   47 1
@<TRIPOS>MOLECULE
ZINC03857926
   39    41     0     0     0
SMALL
USER_CHARGES

@<TRIPOS>ATOM
      1 C1          1.3030   -1.3807    5.6318 C.3       1 <0>        -0.0641
      2 O1          0.8078   -0.0835    5.2941 O.3       1 <0>        -0.1968
      3 C2          1.7306    0.8840    5.0451 C.ar      1 <0>         0.0606
      4 C3          3.0804    0.5913    5.1185 C.ar      1 <0>        -0.2116
      5 C4          4.0192    1.5776    4.8706 C.ar      1 <0>        -0.1140
      6 C5          3.6162    2.8599    4.5434 C.ar      1 <0>        -0.1553
      7 C6          2.2728    3.1667    4.4604 C.ar      1 <0>        -0.1283
      8 C7          1.3175    2.1797    4.7079 C.ar      1 <0>        -0.0012
      9 N1         -0.0155    2.4773    4.6272 N.2       1 <0>        -0.2290
     10 C8         -0.6759    2.2555    3.5026 C.2       1 <0>         0.2324
     11 N2         -0.0089    1.8255    2.3730 N.pl3     1 <0>        -0.3110
     12 H1          0.9502    1.6821    2.3935 H         1 <0>         0.2537
     13 C9         -0.7092    1.6119    1.2356 C.2       1 <0>         0.1999
     14 N3         -2.0035    1.8028    1.2183 N.2       1 <0>        -0.3284
     15 C10        -2.6540    2.2154    2.3164 C.2       1 <0>         0.2728
     16 N4         -2.0039    2.4402    3.4460 N.2       1 <0>        -0.2987
     17 N5         -4.0138    2.4074    2.2669 N.pl3     1 <0>        -0.3516
     18 C11         0.0006    1.1481   -0.0103 C.3       1 <0>        -0.2561
     19 S1         -0.8786    1.7605   -1.4690 S.3       1 <0>         0.3583
     20 C12         0.1377    1.0900   -2.7427 C.ar      1 <0>        -0.0887
     21 N6          1.2022    0.3731   -2.4112 N.ar      1 <0>        -0.2424
     22 C13         1.9825   -0.1489   -3.3428 C.ar      1 <0>         0.0070
     23 C14         1.6819    0.0711   -4.6780 C.ar      1 <0>        -0.2644
     24 C15         0.5644    0.8300   -4.9896 C.ar      1 <0>         0.0085
     25 N7         -0.1773    1.3188   -4.0098 N.ar      1 <0>        -0.1886
     26 H2          0.4648   -2.0557    5.8051 H         1 <0>         0.1084
     27 H3          1.9128   -1.7615    4.8125 H         1 <0>         0.0592
     28 H4          1.9089   -1.3144    6.5354 H         1 <0>         0.0702
     29 H5          3.4023   -0.4075    5.3738 H         1 <0>         0.1335
     30 H6          5.0720    1.3450    4.9333 H         1 <0>         0.1273
     31 H7          4.3554    3.6237    4.3519 H         1 <0>         0.1293
     32 H8          1.9616    4.1686    4.2040 H         1 <0>         0.1444
     33 H9         -4.4968    2.2447    1.4416 H         1 <0>         0.2423
     34 H10        -4.4905    2.7057    3.0572 H         1 <0>         0.2502
     35 H11         0.0238    0.0585   -0.0309 H         1 <0>         0.1501
     36 H12         1.0203    1.5333   -0.0123 H         1 <0>         0.1336
     37 H13         2.8460   -0.7358   -3.0666 H         1 <0>         0.1679
     38 H14         2.3046   -0.3402   -5.4587 H         1 <0>         0.1485
     39 H15         0.3026    1.0196   -6.0201 H         1 <0>         0.1721
@<TRIPOS>BOND
     1    1    2 1
     2    1   26 1
     3    1   27 1
     4    1   28 1
     5    2    3 1
     6    3    8 ar
     7    3    4 ar
     8    4    5 ar
     9    4   29 1
    10    5    6 ar
    11    5   30 1
    12    6    7 ar
    13    6   31 1
    14    7    8 ar
    15    7   32 1
    16    8    9 1
    17    9   10 2
    18   10   16 1
    19   10   11 1
    20   11   12 1
    21   11   13 1
    22   13   14 2
    23   13   18 1
    24   14   15 1
    25   15   16 2
    26   15   17 1
    27   17   33 1
    28   17   34 1
    29   18   19 1
    30   18   35 1
    31   18   36 1
    32   19   20 1
    33   20   25 ar
    34   20   21 ar
    35   21   22 ar
    36   22   23 ar
    37   22   37 1
    38   23   24 ar
    39   23   38 1
    40   24   25 ar
    41   24   39 1
@<TRIPOS>MOLECULE
ZINC03857987
   40    42     0     0     0
SMALL
USER_CHARGES

@<TRIPOS>ATOM
      1 C1          2.4009    5.4976    1.1497 C.3       1 <0>        -0.1756
      2 C2          2.3989    3.9957    1.0260 C.ar      1 <0>        -0.0574
      3 C3          3.5667    3.2840    1.2327 C.ar      1 <0>        -0.1377
      4 C4          3.5693    1.9060    1.1197 C.ar      1 <0>        -0.1050
      5 C5          2.4035    1.2350    0.8058 C.ar      1 <0>        -0.1524
      6 C6          1.2304    1.9471    0.5919 C.ar      1 <0>         0.0440
      7 C7          1.2314    3.3317    0.7058 C.ar      1 <0>        -0.1105
      8 C8         -0.0403    4.1080    0.4798 C.3       1 <0>        -0.1761
      9 N1          0.0500    1.2716    0.2684 N.pl3     1 <0>        -0.2087
     10 C9          0.0160   -0.0988    0.2915 C.2       1 <0>         0.1094
     11 N2          1.0107   -0.9415    0.5205 N.2       1 <0>        -0.3669
     12 C10         0.8457   -2.2458    0.5144 C.2       1 <0>         0.3159
     13 O1          1.7710   -3.0129    0.7275 O.2       1 <0>        -0.2675
     14 C11        -0.5253   -2.7333    0.2351 C.2       1 <0>        -0.3314
     15 C12        -0.9986   -4.0034    0.1629 C.2       1 <0>         0.0193
     16 C13        -0.0667   -5.1373    0.1995 C.ar      1 <0>        -0.0771
     17 C14        -0.3826   -6.2825    0.9410 C.ar      1 <0>        -0.0966
     18 C15         0.4937   -7.3446    0.9734 C.ar      1 <0>        -0.1550
     19 C16         1.6909   -7.2835    0.2723 C.ar      1 <0>         0.0654
     20 C17         2.0131   -6.1468   -0.4684 C.ar      1 <0>         0.0423
     21 C18         1.1384   -5.0793   -0.5116 C.ar      1 <0>        -0.0717
     22 O2          3.1868   -6.0919   -1.1532 O.3       1 <0>        -0.2681
     23 O3          2.5507   -8.3345    0.3080 O.3       1 <0>        -0.2763
     24 S1         -1.3827   -1.1776    0.0274 S.3       1 <0>         0.1680
     25 H1          2.1742    5.7777    2.1784 H         1 <0>         0.0881
     26 H2          3.3830    5.8834    0.8761 H         1 <0>         0.0842
     27 H3          1.6471    5.9180    0.4841 H         1 <0>         0.0823
     28 H4          4.4786    3.8059    1.4826 H         1 <0>         0.1321
     29 H5          4.4831    1.3533    1.2811 H         1 <0>         0.1406
     30 H6          2.4052    0.1582    0.7225 H         1 <0>         0.2136
     31 H7         -0.5745    4.2132    1.4240 H         1 <0>         0.0892
     32 H8          0.2018    5.0957    0.0873 H         1 <0>         0.0950
     33 H9         -0.6681    3.5767   -0.2356 H         1 <0>         0.0632
     34 H10        -0.7439    1.7723    0.0238 H         1 <0>         0.2618
     35 H11        -2.0607   -4.1798    0.0787 H         1 <0>         0.1439
     36 H12        -1.3128   -6.3327    1.4875 H         1 <0>         0.1344
     37 H13         0.2489   -8.2275    1.5452 H         1 <0>         0.1440
     38 H14         1.3849   -4.2003   -1.0886 H         1 <0>         0.1573
     39 H15         3.1295   -6.4249   -2.0592 H         1 <0>         0.2172
     40 H16         2.4028   -8.9875   -0.3898 H         1 <0>         0.2226
@<TRIPOS>BOND
     1    1    2 1
     2    1   25 1
     3    1   26 1
     4    1   27 1
     5    2    7 ar
     6    2    3 ar
     7    3    4 ar
     8    3   28 1
     9    4    5 ar
    10    4   29 1
    11    5    6 ar
    12    5   30 1
    13    6    7 ar
    14    6    9 1
    15    7    8 1
    16    8   31 1
    17    8   32 1
    18    8   33 1
    19    9   10 1
    20    9   34 1
    21   10   24 1
    22   10   11 2
    23   11   12 1
    24   12   13 2
    25   12   14 1
    26   14   15 2
    27   14   24 1
    28   15   16 1
    29   15   35 1
    30   16   21 ar
    31   16   17 ar
    32   17   18 ar
    33   17   36 1
    34   18   19 ar
    35   18   37 1
    36   19   20 ar
    37   19   23 1
    38   20   21 ar
    39   20   22 1
    40   21   38 1
    41   22   39 1
    42   23   40 1
@<TRIPOS>MOLECULE
ZINC03857999
   38    40     0     0     0
SMALL
USER_CHARGES

@<TRIPOS>ATOM
      1 C1         -1.3336    2.1127   -0.0073 C.3       1 <0>        -0.1712
      2 C2         -0.0185    1.3768   -0.0145 C.ar      1 <0>        -0.1003
      3 C3          0.5925    1.0471    1.1827 C.ar      1 <0>        -0.1167
      4 C4          1.7988    0.3787    1.1839 C.ar      1 <0>        -0.1567
      5 C5          2.4040    0.0339   -0.0277 C.ar      1 <0>         0.0190
      6 C6          1.7809    0.3703   -1.2326 C.ar      1 <0>        -0.1602
      7 C7          0.5749    1.0391   -1.2182 C.ar      1 <0>        -0.1165
      8 N1          3.5987   -0.6291   -0.0343 N.2       1 <0>        -0.2425
      9 C8          4.7311    0.0482   -0.1413 C.2       1 <0>         0.2279
     10 N2          4.7234    1.4277   -0.1359 N.pl3     1 <0>        -0.3127
     11 H1          3.8880    1.9138   -0.0542 H         1 <0>         0.2559
     12 C9          5.8952    2.0939   -0.2463 C.2       1 <0>         0.2009
     13 N3          7.0175    1.4301   -0.3566 N.2       1 <0>        -0.3274
     14 C10         7.0268    0.0890   -0.3621 C.2       1 <0>         0.2740
     15 N4          5.9014   -0.5977   -0.2510 N.2       1 <0>        -0.3029
     16 N5          8.2209   -0.5803   -0.4788 N.pl3     1 <0>        -0.3500
     17 C11         5.9084    3.6008   -0.2429 C.3       1 <0>        -0.2565
     18 S1          7.4663    4.1890    0.4665 S.3       1 <0>         0.3581
     19 C12         7.2177    5.9294    0.3501 C.ar      1 <0>        -0.0889
     20 N6          6.0888    6.3885   -0.1715 N.ar      1 <0>        -0.2423
     21 C13         5.8686    7.6890   -0.2682 C.ar      1 <0>         0.0073
     22 C14         6.8400    8.5741    0.1732 C.ar      1 <0>        -0.2638
     23 C15         8.0111    8.0603    0.7081 C.ar      1 <0>         0.0085
     24 N7          8.1662    6.7489    0.7812 N.ar      1 <0>        -0.1884
     25 H2         -2.1525    1.3933   -0.0014 H         1 <0>         0.0865
     26 H3         -1.3943    2.7396    0.8823 H         1 <0>         0.0774
     27 H4         -1.4052    2.7374   -0.8976 H         1 <0>         0.0772
     28 H5          0.1237    1.3142    2.1182 H         1 <0>         0.1288
     29 H6          2.2744    0.1217    2.1189 H         1 <0>         0.1398
     30 H7          2.2426    0.1067   -2.1728 H         1 <0>         0.1386
     31 H8          0.0923    1.2996   -2.1485 H         1 <0>         0.1285
     32 H9          9.0501   -0.0830   -0.5565 H         1 <0>         0.2432
     33 H10         8.2348   -1.5502   -0.4834 H         1 <0>         0.2506
     34 H11         5.8133    3.9673   -1.2651 H         1 <0>         0.1509
     35 H12         5.0748    3.9701    0.3544 H         1 <0>         0.1345
     36 H13         4.9450    8.0571   -0.6900 H         1 <0>         0.1684
     37 H14         6.6877    9.6409    0.1015 H         1 <0>         0.1488
     38 H15         8.7876    8.7230    1.0607 H         1 <0>         0.1723
@<TRIPOS>BOND
     1    1    2 1
     2    1   25 1
     3    1   26 1
     4    1   27 1
     5    2    7 ar
     6    2    3 ar
     7    3    4 ar
     8    3   28 1
     9    4    5 ar
    10    4   29 1
    11    5    6 ar
    12    5    8 1
    13    6    7 ar
    14    6   30 1
    15    7   31 1
    16    8    9 2
    17    9   15 1
    18    9   10 1
    19   10   11 1
    20   10   12 1
    21   12   13 2
    22   12   17 1
    23   13   14 1
    24   14   15 2
    25   14   16 1
    26   16   32 1
    27   16   33 1
    28   17   18 1
    29   17   34 1
    30   17   35 1
    31   18   19 1
    32   19   24 ar
    33   19   20 ar
    34   20   21 ar
    35   21   22 ar
    36   21   36 1
    37   22   23 ar
    38   22   37 1
    39   23   24 ar
    40   23   38 1
@<TRIPOS>MOLECULE
ZINC03858040
   40    42     0     0     0
SMALL
USER_CHARGES

@<TRIPOS>ATOM
      1 C1         -9.3291    6.5639    1.5176 C.3       1 <0>        -0.0686
      2 N1         -8.8385    5.3340    0.8907 N.pl3     1 <0>        -0.1575
      3 C2         -9.5625    4.2119    0.5958 C.2       1 <0>        -0.1283
      4 N2         -8.7465    3.3567    0.0475 N.2       1 <0>        -0.0807
      5 N3         -7.5661    3.8595   -0.0283 N.2       1 <0>        -0.1126
      6 C3         -7.5635    5.0701    0.4795 C.2       1 <0>        -0.2357
      7 S1         -6.1785    6.1526    0.6005 S.3       1 <0>         0.3131
      8 C4         -4.8974    5.1074   -0.1361 C.3       1 <0>        -0.2391
      9 C5         -3.5851    5.8483   -0.1394 C.2       1 <0>         0.2002
     10 N4         -2.4217    5.1634   -0.0552 N.pl3     1 <0>        -0.3094
     11 H1         -2.4250    4.1955    0.0079 H         1 <0>         0.2559
     12 C6         -1.2298    5.8599   -0.0550 C.2       1 <0>         0.2274
     13 N5         -0.0773    5.2162    0.0308 N.2       1 <0>        -0.2223
     14 C7         -0.0550    3.8483    0.0163 C.ar      1 <0>        -0.0050
     15 C8         -0.0504    3.1596   -1.1977 C.ar      1 <0>        -0.1303
     16 C9         -0.0235    1.7794   -1.2055 C.ar      1 <0>        -0.1539
     17 C10        -0.0112    1.0760   -0.0144 C.ar      1 <0>        -0.1117
     18 C11        -0.0151    1.7487    1.1952 C.ar      1 <0>        -0.2111
     19 C12        -0.0371    3.1314    1.2200 C.ar      1 <0>         0.0641
     20 O1         -0.0419    3.7927    2.4084 O.3       1 <0>        -0.1964
     21 C13        -0.0233    2.9958    3.5944 C.3       1 <0>        -0.0646
     22 N6         -1.2558    7.1984   -0.1487 N.2       1 <0>        -0.2978
     23 C14        -2.4138    7.8316   -0.2345 C.2       1 <0>         0.2717
     24 N7         -3.5711    7.1535   -0.2294 N.2       1 <0>        -0.3324
     25 N8         -2.4316    9.2024   -0.3297 N.pl3     1 <0>        -0.3528
     26 H2         -9.6700    7.2540    0.7459 H         1 <0>         0.0984
     27 H3        -10.1579    6.3261    2.1844 H         1 <0>         0.1005
     28 H4         -8.5243    7.0265    2.0889 H         1 <0>         0.1071
     29 H5        -10.6156    4.0622    0.7827 H         1 <0>         0.2124
     30 H6         -5.1764    4.8577   -1.1598 H         1 <0>         0.1547
     31 H7         -4.7962    4.1917    0.4465 H         1 <0>         0.1384
     32 H8         -0.0644    3.7056   -2.1294 H         1 <0>         0.1435
     33 H9         -0.0158    1.2467   -2.1450 H         1 <0>         0.1303
     34 H10         0.0060   -0.0037   -0.0284 H         1 <0>         0.1286
     35 H11        -0.0013    1.1931    2.1212 H         1 <0>         0.1343
     36 H12         0.8767    2.3810    3.6049 H         1 <0>         0.0699
     37 H13        -0.0294    3.6461    4.4692 H         1 <0>         0.1081
     38 H14        -0.9030    2.3525    3.6137 H         1 <0>         0.0605
     39 H15        -1.5985    9.6991   -0.3336 H         1 <0>         0.2505
     40 H16        -3.2773    9.6732   -0.3929 H         1 <0>         0.2407
@<TRIPOS>BOND
     1    1    2 1
     2    1   26 1
     3    1   27 1
     4    1   28 1
     5    2    6 1
     6    2    3 1
     7    3    4 2
     8    3   29 1
     9    4    5 1
    10    5    6 2
    11    6    7 1
    12    7    8 1
    13    8    9 1
    14    8   30 1
    15    8   31 1
    16    9   24 2
    17    9   10 1
    18   10   11 1
    19   10   12 1
    20   12   13 2
    21   12   22 1
    22   13   14 1
    23   14   19 ar
    24   14   15 ar
    25   15   16 ar
    26   15   32 1
    27   16   17 ar
    28   16   33 1
    29   17   18 ar
    30   17   34 1
    31   18   19 ar
    32   18   35 1
    33   19   20 1
    34   20   21 1
    35   21   36 1
    36   21   37 1
    37   21   38 1
    38   22   23 2
    39   23   24 1
    40   23   25 1
    41   25   39 1
    42   25   40 1
@<TRIPOS>MOLECULE
ZINC03858109
   37    39     0     0     0
SMALL
USER_CHARGES

@<TRIPOS>ATOM
      1 C1         13.3152   -1.4397   -2.9186 C.3       1 <0>        -0.0643
      2 O1         12.1382   -2.1347   -2.5019 O.3       1 <0>        -0.2084
      3 C2         11.1780   -1.4028   -1.8764 C.ar      1 <0>         0.0733
      4 C3         11.3696   -0.0407   -1.6702 C.ar      1 <0>        -0.1713
      5 C4         10.4041    0.7158   -1.0353 C.ar      1 <0>        -0.1036
      6 C5          9.2329    0.1192   -0.5972 C.ar      1 <0>         0.0748
      7 C6          9.0315   -1.2569   -0.8052 C.ar      1 <0>        -0.1132
      8 C7         10.0152   -2.0152   -1.4484 C.ar      1 <0>        -0.1012
      9 C8          7.7871   -1.8822   -0.3437 C.2       1 <0>         0.0274
     10 C9          6.7572   -1.0507    0.0297 C.2       1 <0>        -0.2410
     11 C10         6.9953    0.4070   -0.0663 C.2       1 <0>         0.0692
     12 N1          6.0058    1.2406   -0.2416 N.2       1 <0>        -0.0078
     13 N2          4.7220    0.7549   -0.5223 N.am      1 <0>        -0.3183
     14 C11         3.6807    1.6072   -0.5980 C.2       1 <0>         0.4057
     15 O2          3.8558    2.7997   -0.4223 O.2       1 <0>        -0.3107
     16 C12         2.3374    1.0990   -0.8918 C.2       1 <0>        -0.3528
     17 C13         1.1463    1.7973   -1.0127 C.2       1 <0>        -0.0872
     18 C14         0.0192    1.0664   -1.2972 C.2       1 <0>        -0.1985
     19 C15         0.1216   -0.2803   -1.4440 C.2       1 <0>        -0.3145
     20 S1          1.8099   -0.5793   -1.1882 S.3       1 <0>         0.4007
     21 O3          8.2802    0.8513    0.0282 O.3       1 <0>        -0.1012
     22 C16         5.4715   -1.5883    0.5057 C.2       1 <0>         0.3457
     23 O4          5.0751   -2.6647    0.1010 O.2       1 <0>        -0.3612
     24 N3          4.7340   -0.8876    1.3898 N.am      1 <0>        -0.4260
     25 H1         13.8031   -0.9980   -2.0497 H         1 <0>         0.0694
     26 H2         13.9976   -2.1384   -3.4024 H         1 <0>         0.1137
     27 H3         13.0426   -0.6524   -3.6215 H         1 <0>         0.0700
     28 H4         12.2807    0.4294   -2.0098 H         1 <0>         0.1471
     29 H5         10.5621    1.7729   -0.8804 H         1 <0>         0.1564
     30 H6          9.8669   -3.0727   -1.6099 H         1 <0>         0.1559
     31 H7          7.6838   -2.9563   -0.2985 H         1 <0>         0.1679
     32 H8          4.5826   -0.1948   -0.6622 H         1 <0>         0.2260
     33 H9          1.1064    2.8695   -0.8890 H         1 <0>         0.1670
     34 H10        -0.9367    1.5569   -1.4074 H         1 <0>         0.1498
     35 H11        -0.6595   -0.9921   -1.6665 H         1 <0>         0.1912
     36 H12         5.0826   -0.0654    1.7683 H         1 <0>         0.2330
     37 H13         3.8545   -1.2055    1.6474 H         1 <0>         0.2368
@<TRIPOS>BOND
     1    1    2 1
     2    1   25 1
     3    1   26 1
     4    1   27 1
     5    2    3 1
     6    3    8 ar
     7    3    4 ar
     8    4    5 ar
     9    4   28 1
    10    5    6 ar
    11    5   29 1
    12    6   21 1
    13    6    7 ar
    14    7    8 ar
    15    7    9 1
    16    8   30 1
    17    9   10 2
    18    9   31 1
    19   10   11 1
    20   10   22 1
    21   11   12 2
    22   11   21 1
    23   12   13 1
    24   13   14 am
    25   13   32 1
    26   14   15 2
    27   14   16 1
    28   16   20 1
    29   16   17 2
    30   17   18 1
    31   17   33 1
    32   18   19 2
    33   18   34 1
    34   19   20 1
    35   19   35 1
    36   22   23 2
    37   22   24 am
    38   24   36 1
    39   24   37 1
@<TRIPOS>MOLECULE
ZINC03858168
   44    45     0     0     0
SMALL
USER_CHARGES

@<TRIPOS>ATOM
      1 C1          3.5626    3.1484   -0.8067 C.3       1 <0>        -0.0513
      2 N1          2.4019    3.7371   -0.1341 N.pl3     1 <0>        -0.3342
      3 C2          2.5179    5.0442    0.5173 C.3       1 <0>        -0.0513
      4 C3          1.1883    3.0542   -0.1139 C.ar      1 <0>         0.1388
      5 C4          1.0804    1.8125   -0.7335 C.ar      1 <0>        -0.2165
      6 C5         -0.1170    1.1344   -0.7164 C.ar      1 <0>        -0.0603
      7 C6         -1.2291    1.6978   -0.0791 C.ar      1 <0>        -0.1315
      8 C7         -1.1145    2.9445    0.5478 C.ar      1 <0>        -0.0693
      9 C8          0.0867    3.6157    0.5254 C.ar      1 <0>        -0.2175
     10 C9         -2.5112    0.9804   -0.0635 C.2       1 <0>        -0.0919
     11 C10        -3.6666    1.6623    0.1222 C.2       1 <0>        -0.0152
     12 C11        -4.9285    0.9336    0.3004 C.2       1 <0>         0.3420
     13 O1         -5.9522    1.5418    0.5513 O.2       1 <0>        -0.3262
     14 N2         -4.9533   -0.4091    0.1861 N.am      1 <0>        -0.3326
     15 N3         -6.1275   -1.0872    0.3519 N.3       1 <0>        -0.2065
     16 N4         -3.6574    3.0616    0.1442 N.am      1 <0>        -0.3219
     17 C12        -4.1505    3.7220    1.2106 C.2       1 <0>         0.3445
     18 O2         -4.5232    3.1042    2.1892 O.2       1 <0>        -0.3163
     19 C13        -4.2381    5.1974    1.1904 C.ar      1 <0>        -0.0976
     20 C14        -3.8055    5.9100    0.0705 C.ar      1 <0>        -0.1249
     21 C15        -3.8930    7.2865    0.0552 C.ar      1 <0>        -0.1127
     22 C16        -4.3998    7.9633    1.1503 C.ar      1 <0>        -0.1481
     23 C17        -4.8267    7.2637    2.2674 C.ar      1 <0>         0.0902
     24 C18        -4.7481    5.8841    2.2930 C.ar      1 <0>        -0.1040
     25 F1         -5.3200    7.9311    3.3335 F         1 <0>        -0.1009
     26 H1          3.5764    3.4635   -1.8501 H         1 <0>         0.0670
     27 H2          4.4759    3.4821   -0.3143 H         1 <0>         0.0803
     28 H3          3.4990    2.0614   -0.7563 H         1 <0>         0.0865
     29 H4          2.8207    4.9072    1.5554 H         1 <0>         0.0704
     30 H5          3.2645    5.6444   -0.0028 H         1 <0>         0.0791
     31 H6          1.5548    5.5535    0.4840 H         1 <0>         0.0862
     32 H7          1.9376    1.3807   -1.2287 H         1 <0>         0.1343
     33 H8         -0.1999    0.1711   -1.1977 H         1 <0>         0.1276
     34 H9         -1.9686    3.3807    1.0443 H         1 <0>         0.1535
     35 H10         0.1749    4.5794    1.0049 H         1 <0>         0.1366
     36 H11        -2.5323   -0.0908   -0.2000 H         1 <0>         0.1310
     37 H12        -4.1373   -0.8940   -0.0139 H         1 <0>         0.2196
     38 H13        -6.8353   -0.7444   -0.2802 H         1 <0>         0.1596
     39 H14        -5.9908   -2.0803    0.2375 H         1 <0>         0.1533
     40 H15        -3.2963    3.5561   -0.6081 H         1 <0>         0.2406
     41 H16        -3.4061    5.3840   -0.7841 H         1 <0>         0.1296
     42 H17        -3.5616    7.8377   -0.8124 H         1 <0>         0.1383
     43 H18        -4.4625    9.0413    1.1344 H         1 <0>         0.1464
     44 H19        -5.0809    5.3388    3.1639 H         1 <0>         0.1752
@<TRIPOS>BOND
     1    1    2 1
     2    1   26 1
     3    1   27 1
     4    1   28 1
     5    2    3 1
     6    2    4 1
     7    3   29 1
     8    3   30 1
     9    3   31 1
    10    4    9 ar
    11    4    5 ar
    12    5    6 ar
    13    5   32 1
    14    6    7 ar
    15    6   33 1
    16    7    8 ar
    17    7   10 1
    18    8    9 ar
    19    8   34 1
    20    9   35 1
    21   10   11 2
    22   10   36 1
    23   11   12 1
    24   11   16 1
    25   12   13 2
    26   12   14 am
    27   14   15 1
    28   14   37 1
    29   15   38 1
    30   15   39 1
    31   16   17 am
    32   16   40 1
    33   17   18 2
    34   17   19 1
    35   19   24 ar
    36   19   20 ar
    37   20   21 ar
    38   20   41 1
    39   21   22 ar
    40   21   42 1
    41   22   23 ar
    42   22   43 1
    43   23   24 ar
    44   23   25 1
    45   24   44 1
@<TRIPOS>MOLECULE
ZINC03858300
   45    47     0     0     0
SMALL
USER_CHARGES

@<TRIPOS>ATOM
      1 C1          4.0596    2.1526   -1.4622 C.3       1 <0>        -0.2104
      2 C2          3.6995    1.7758   -0.0237 C.3       1 <0>        -0.1229
      3 C3          2.4048    1.0047   -0.0155 C.2       1 <0>         0.0635
      4 C4          2.4227   -0.3151   -0.0228 C.2       1 <0>        -0.3623
      5 N1          1.1926    1.6828   -0.0003 N.pl3     1 <0>        -0.2554
      6 N2         -0.0111    0.9658    0.0074 N.pl3     1 <0>        -0.2350
      7 C5         -1.2119    1.6375    0.0167 C.2       1 <0>         0.2082
      8 N3         -1.3514    2.9477    0.0302 N.2       1 <0>        -0.2667
      9 C6         -2.6465    3.2678    0.0332 C.2       1 <0>         0.1333
     10 C7         -3.3719    2.0813    0.0299 C.2       1 <0>        -0.2723
     11 N4         -2.4390    1.0529    0.0193 N.pl3     1 <0>        -0.1299
     12 C8         -2.7225   -0.3844    0.0131 C.3       1 <0>         0.0292
     13 C9         -2.8125   -0.8848    1.4318 C.ar      1 <0>        -0.1227
     14 C10        -1.6804   -1.3512    2.0733 C.ar      1 <0>        -0.1153
     15 C11        -1.7620   -1.8057    3.3763 C.ar      1 <0>        -0.1292
     16 C12        -2.9778   -1.8035    4.0341 C.ar      1 <0>        -0.1142
     17 C13        -4.1110   -1.3420    3.3908 C.ar      1 <0>        -0.1296
     18 C14        -4.0283   -0.8827    2.0896 C.ar      1 <0>        -0.0940
     19 C15        -4.7769    2.1356    0.0375 C.2       1 <0>         0.3932
     20 O1         -5.4328    1.1085    0.0343 O.2       1 <0>        -0.3833
     21 N5         -5.3912    3.3367    0.0479 N.am      1 <0>        -0.3354
     22 H1         -6.3903    3.3788    0.0531 H         1 <0>         0.2822
     23 C16        -4.6805    4.4777    0.0514 C.2       1 <0>         0.4100
     24 O2         -5.2681    5.5423    0.0611 O.2       1 <0>        -0.3817
     25 N6         -3.3342    4.4707    0.0442 N.am      1 <0>        -0.2376
     26 C17        -2.5957    5.7360    0.0484 C.3       1 <0>        -0.0515
     27 H2          3.2668    2.7691   -1.8857 H         1 <0>         0.0794
     28 H3          4.9961    2.7103   -1.4682 H         1 <0>         0.0786
     29 H4          4.1726    1.2466   -2.0577 H         1 <0>         0.0840
     30 H5          3.5866    2.6818    0.5717 H         1 <0>         0.0901
     31 H6          4.4924    1.1593    0.3997 H         1 <0>         0.1062
     32 H7          3.3652   -0.8423   -0.0346 H         1 <0>         0.1300
     33 H8          1.4949   -0.8677   -0.0169 H         1 <0>         0.0990
     34 H9          1.1794    2.6527    0.0050 H         1 <0>         0.2742
     35 H10         0.0021   -0.0041    0.0020 H         1 <0>         0.2746
     36 H11        -3.6686   -0.5660   -0.4969 H         1 <0>         0.1417
     37 H12        -1.9223   -0.9104   -0.5075 H         1 <0>         0.0944
     38 H13        -0.7314   -1.3570    1.5579 H         1 <0>         0.1182
     39 H14        -0.8768   -2.1666    3.8788 H         1 <0>         0.1324
     40 H15        -3.0425   -2.1628    5.0506 H         1 <0>         0.1315
     41 H16        -5.0609   -1.3407    3.9046 H         1 <0>         0.1354
     42 H17        -4.9137   -0.5224    1.5869 H         1 <0>         0.1619
     43 H18        -2.4178    6.0562   -0.9782 H         1 <0>         0.0850
     44 H19        -3.1786    6.4951    0.5699 H         1 <0>         0.1113
     45 H20        -1.6414    5.5979    0.5565 H         1 <0>         0.1019
@<TRIPOS>BOND
     1    1    2 1
     2    1   27 1
     3    1   28 1
     4    1   29 1
     5    2    3 1
     6    2   30 1
     7    2   31 1
     8    3    4 2
     9    3    5 1
    10    4   32 1
    11    4   33 1
    12    5    6 1
    13    5   34 1
    14    6    7 1
    15    6   35 1
    16    7   11 1
    17    7    8 2
    18    8    9 1
    19    9   25 1
    20    9   10 2
    21   10   11 1
    22   10   19 1
    23   11   12 1
    24   12   13 1
    25   12   36 1
    26   12   37 1
    27   13   18 ar
    28   13   14 ar
    29   14   15 ar
    30   14   38 1
    31   15   16 ar
    32   15   39 1
    33   16   17 ar
    34   16   40 1
    35   17   18 ar
    36   17   41 1
    37   18   42 1
    38   19   20 2
    39   19   21 am
    40   21   22 1
    41   21   23 am
    42   23   24 2
    43   23   25 am
    44   25   26 1
    45   26   43 1
    46   26   44 1
    47   26   45 1
@<TRIPOS>MOLECULE
ZINC03858300
   46    48     0     0     0
SMALL
USER_CHARGES

@<TRIPOS>ATOM
      1 C1          4.0596    2.1526   -1.4622 C.3       1 <0>        -0.2119
      2 C2          3.6995    1.7758   -0.0237 C.3       1 <0>        -0.1216
      3 C3          2.4048    1.0047   -0.0155 C.2       1 <0>         0.0413
      4 C4          2.4227   -0.3151   -0.0228 C.2       1 <0>        -0.2979
      5 N1          1.1926    1.6828   -0.0003 N.pl3     1 <0>        -0.2843
      6 N2         -0.0111    0.9658    0.0074 N.pl3     1 <0>        -0.1951
      7 C5         -1.2119    1.6375    0.0167 C.cat     1 <0>         0.2518
      8 C6         -2.6465    3.2678    0.0332 C.2       1 <0>         0.1327
      9 C7         -3.3719    2.0813    0.0299 C.2       1 <0>        -0.1747
     10 N3         -2.4390    1.0529    0.0193 N.pl3     1 <0>        -0.0834
     11 C8         -2.7225   -0.3844    0.0131 C.3       1 <0>         0.0287
     12 C9         -2.8125   -0.8848    1.4318 C.ar      1 <0>        -0.1578
     13 C10        -1.6804   -1.3512    2.0733 C.ar      1 <0>        -0.1166
     14 C11        -1.7620   -1.8057    3.3763 C.ar      1 <0>        -0.1192
     15 C12        -2.9778   -1.8035    4.0341 C.ar      1 <0>        -0.0885
     16 C13        -4.1110   -1.3420    3.3908 C.ar      1 <0>        -0.1182
     17 C14        -4.0283   -0.8827    2.0896 C.ar      1 <0>        -0.0891
     18 C15        -4.7769    2.1356    0.0375 C.2       1 <0>         0.3832
     19 O1         -5.4328    1.1085    0.0343 O.2       1 <0>        -0.3139
     20 N4         -5.3912    3.3367    0.0479 N.am      1 <0>        -0.3237
     21 H1         -6.3903    3.3788    0.0531 H         1 <0>         0.3106
     22 C16        -4.6805    4.4777    0.0514 C.2       1 <0>         0.4097
     23 O2         -5.2681    5.5423    0.0611 O.2       1 <0>        -0.3101
     24 N5         -3.3342    4.4707    0.0442 N.am      1 <0>        -0.2454
     25 C17        -2.5957    5.7360    0.0484 C.3       1 <0>        -0.0690
     26 H2          3.2668    2.7691   -1.8857 H         1 <0>         0.0680
     27 H3          4.9961    2.7103   -1.4682 H         1 <0>         0.0992
     28 H4          4.1726    1.2466   -2.0577 H         1 <0>         0.0936
     29 H5          3.5866    2.6818    0.5717 H         1 <0>         0.0904
     30 H6          4.4924    1.1593    0.3997 H         1 <0>         0.1272
     31 H7          3.3652   -0.8423   -0.0346 H         1 <0>         0.1580
     32 H8          1.4949   -0.8677   -0.0169 H         1 <0>         0.0959
     33 H9          1.1794    2.6527    0.0050 H         1 <0>         0.2521
     34 H10         0.0021   -0.0041    0.0020 H         1 <0>         0.3093
     35 H11        -3.6686   -0.5660   -0.4969 H         1 <0>         0.1667
     36 H12        -1.9223   -0.9104   -0.5075 H         1 <0>         0.1126
     37 H13        -0.7314   -1.3570    1.5579 H         1 <0>         0.1111
     38 H14        -0.8768   -2.1666    3.8788 H         1 <0>         0.1474
     39 H15        -3.0425   -2.1628    5.0506 H         1 <0>         0.1509
     40 H16        -5.0609   -1.3407    3.9046 H         1 <0>         0.1523
     41 H17        -4.9137   -0.5224    1.5869 H         1 <0>         0.1596
     42 H18        -2.4178    6.0562   -0.9782 H         1 <0>         0.1083
     43 H19        -3.1786    6.4951    0.5699 H         1 <0>         0.1514
     44 H20        -1.6414    5.5979    0.5565 H         1 <0>         0.0785
     45 N6         -1.3491    2.9497    0.0302 N.pl3     1 <0>        -0.1732
     46 H21        -0.5753    3.6246    0.0374 H         1 <0>         0.3031
@<TRIPOS>BOND
     1    1    2 1
     2    1   26 1
     3    1   27 1
     4    1   28 1
     5    2    3 1
     6    2   29 1
     7    2   30 1
     8    3    4 2
     9    3    5 1
    10    4   31 1
    11    4   32 1
    12    5    6 1
    13    5   33 1
    14    6    7 1
    15    6   34 1
    16    7   10 1
    17    7   45 2
    18    8   24 1
    19    8    9 2
    20    8   45 1
    21    9   10 1
    22    9   18 1
    23   10   11 1
    24   11   12 1
    25   11   35 1
    26   11   36 1
    27   12   17 ar
    28   12   13 ar
    29   13   14 ar
    30   13   37 1
    31   14   15 ar
    32   14   38 1
    33   15   16 ar
    34   15   39 1
    35   16   17 ar
    36   16   40 1
    37   17   41 1
    38   18   19 2
    39   18   20 am
    40   20   21 1
    41   20   22 am
    42   22   23 2
    43   22   24 am
    44   24   25 1
    45   25   42 1
    46   25   43 1
    47   25   44 1
    48   45   46 1
@<TRIPOS>MOLECULE
ZINC03858540
   45    47     0     0     0
SMALL
USER_CHARGES

@<TRIPOS>ATOM
      1 C1         -4.6695   12.5502    5.1013 C.3       1 <0>        -0.2153
      2 C2         -4.7464   12.4143    3.5793 C.3       1 <0>        -0.0042
      3 O1         -4.5026   11.0331    3.2038 O.3       1 <0>        -0.2739
      4 C3         -4.5352   10.7418    1.8881 C.2       1 <0>         0.3507
      5 O2         -4.7612   11.6183    1.0770 O.2       1 <0>        -0.3645
      6 C4         -4.2969    9.3619    1.4336 C.ar      1 <0>        -0.1349
      7 C5         -4.3308    9.0594    0.0669 C.ar      1 <0>        -0.0471
      8 C6         -4.1097    7.7812   -0.3546 C.ar      1 <0>        -0.1039
      9 C7         -3.8492    6.7709    0.5801 C.ar      1 <0>         0.0541
     10 C8         -3.8215    7.0726    1.9478 C.ar      1 <0>        -0.1908
     11 C9         -4.0370    8.3522    2.3682 C.ar      1 <0>        -0.0696
     12 N1         -3.6283    5.4947    0.1597 N.2       1 <0>        -0.1678
     13 C10        -2.4833    4.9004    0.4305 C.2       1 <0>         0.1899
     14 C11        -1.3647    5.6415    1.0438 C.2       1 <0>        -0.2071
     15 C12        -0.4474    4.9106    1.7841 C.2       1 <0>        -0.0297
     16 C13        -0.6283    3.5049    1.8752 C.ar      1 <0>        -0.1064
     17 C14         0.1433    2.7455    2.7649 C.ar      1 <0>        -0.1085
     18 C15        -0.0570    1.3827    2.8521 C.ar      1 <0>         0.0743
     19 C16        -1.0175    0.7620    2.0579 C.ar      1 <0>        -0.1693
     20 C17        -1.7683    1.4960    1.1636 C.ar      1 <0>        -0.1030
     21 C18        -1.5796    2.8668    1.0576 C.ar      1 <0>         0.0768
     22 O3         -2.2923    3.5859    0.1553 O.3       1 <0>        -0.1052
     23 O4          0.6870    0.6432    3.7169 O.3       1 <0>        -0.2092
     24 C19         0.4293   -0.7618    3.7571 C.3       1 <0>        -0.0645
     25 C20        -1.2279    7.0987    0.8771 C.2       1 <0>         0.3567
     26 O5         -1.4914    7.6160   -0.1917 O.2       1 <0>        -0.3474
     27 N2         -0.8107    7.8588    1.9089 N.am      1 <0>        -0.4205
     28 H1         -5.4221   11.9102    5.5618 H         1 <0>         0.0859
     29 H2         -3.6789   12.2502    5.4433 H         1 <0>         0.0829
     30 H3         -4.8525   13.5871    5.3832 H         1 <0>         0.0888
     31 H4         -3.9938   13.0544    3.1189 H         1 <0>         0.0882
     32 H5         -5.7369   12.7144    3.2374 H         1 <0>         0.0904
     33 H6         -4.5317    9.8384   -0.6537 H         1 <0>         0.1579
     34 H7         -4.1359    7.5480   -1.4087 H         1 <0>         0.1559
     35 H8         -3.6250    6.2931    2.6690 H         1 <0>         0.1347
     36 H9         -4.0112    8.5857    3.4223 H         1 <0>         0.1435
     37 H10         0.3814    5.3967    2.2771 H         1 <0>         0.1474
     38 H11         0.8910    3.2244    3.3798 H         1 <0>         0.1524
     39 H12        -1.1728   -0.3037    2.1396 H         1 <0>         0.1477
     40 H13        -2.5066    1.0039    0.5478 H         1 <0>         0.1574
     41 H14        -0.6085   -0.9328    4.0433 H         1 <0>         0.0697
     42 H15         0.6104   -1.1927    2.7724 H         1 <0>         0.0704
     43 H16         1.0894   -1.2316    4.4862 H         1 <0>         0.1141
     44 H17        -0.6006    7.4463    2.7613 H         1 <0>         0.2141
     45 H18        -0.7206    8.8184    1.7992 H         1 <0>         0.2390
@<TRIPOS>BOND
     1    1    2 1
     2    1   28 1
     3    1   29 1
     4    1   30 1
     5    2    3 1
     6    2   31 1
     7    2   32 1
     8    3    4 1
     9    4    5 2
    10    4    6 1
    11    6   11 ar
    12    6    7 ar
    13    7    8 ar
    14    7   33 1
    15    8    9 ar
    16    8   34 1
    17    9   10 ar
    18    9   12 1
    19   10   11 ar
    20   10   35 1
    21   11   36 1
    22   12   13 2
    23   13   22 1
    24   13   14 1
    25   14   15 2
    26   14   25 1
    27   15   16 1
    28   15   37 1
    29   16   21 ar
    30   16   17 ar
    31   17   18 ar
    32   17   38 1
    33   18   19 ar
    34   18   23 1
    35   19   20 ar
    36   19   39 1
    37   20   21 ar
    38   20   40 1
    39   21   22 1
    40   23   24 1
    41   24   41 1
    42   24   42 1
    43   24   43 1
    44   25   26 2
    45   25   27 am
    46   27   44 1
    47   27   45 1
@<TRIPOS>MOLECULE
ZINC03858957
   39    41     0     0     0
SMALL
USER_CHARGES

@<TRIPOS>ATOM
      1 C1          2.1818    3.6427   -0.5724 C.3       1 <0>        -0.1725
      2 C2          0.7326    4.0444   -0.4746 C.ar      1 <0>        -0.0895
      3 C3          0.3678    5.1269    0.3047 C.ar      1 <0>        -0.1119
      4 C4         -0.9600    5.4944    0.4006 C.ar      1 <0>        -0.1554
      5 C5         -1.9282    4.7816   -0.2946 C.ar      1 <0>         0.0562
      6 C6         -1.5586    3.6947   -1.0760 C.ar      1 <0>        -0.1207
      7 C7         -0.2296    3.3294   -1.1639 C.ar      1 <0>        -0.1108
      8 N1         -3.2737    5.1546   -0.2037 N.am      1 <0>        -0.3249
      9 C8         -4.2383    4.2145   -0.2506 C.2       1 <0>         0.2852
     10 O1         -3.9391    3.0392   -0.2707 O.2       1 <0>        -0.3331
     11 C9         -5.6885    4.6234   -0.2781 C.3       1 <0>        -0.0156
     12 N2         -6.5324    3.4270   -0.3279 N.am      1 <0>        -0.3088
     13 C10        -6.9550    2.8232   -1.4569 C.2       1 <0>         0.3476
     14 O2         -6.7133    3.1621   -2.6014 O.2       1 <0>        -0.2773
     15 C11        -7.7623    1.6749   -1.0306 C.2       1 <0>        -0.0627
     16 C12        -8.3951    0.7676   -1.8265 C.2       1 <0>        -0.0482
     17 C13        -8.1478    0.7543   -3.2189 C.2       1 <0>        -0.0492
     18 C14        -8.8050   -0.0191   -4.1546 C.2       1 <0>        -0.1748
     19 C15        -8.2365    0.2915   -5.3995 C.2       1 <0>        -0.2341
     20 C16        -7.2784    1.2191   -5.1813 C.2       1 <0>        -0.0727
     21 O3         -7.2312    1.4996   -3.8709 O.3       1 <0>        -0.0001
     22 N3         -7.7480    1.7140    0.3707 N.am      1 <0>        -0.3195
     23 C17        -7.0052    2.7714    0.7433 C.2       1 <0>         0.4132
     24 O4         -6.7910    3.0911    1.8971 O.2       1 <0>        -0.3576
     25 H1          2.4133    2.9235    0.2133 H         1 <0>         0.0866
     26 H2          2.3683    3.1896   -1.5461 H         1 <0>         0.0808
     27 H3          2.8119    4.5243   -0.4552 H         1 <0>         0.0791
     28 H4          1.1216    5.6829    0.8424 H         1 <0>         0.1314
     29 H5         -1.2448    6.3372    1.0130 H         1 <0>         0.1283
     30 H6         -2.3097    3.1355   -1.6140 H         1 <0>         0.1601
     31 H7          0.0585    2.4842   -1.7714 H         1 <0>         0.1348
     32 H8         -3.5123    6.0898   -0.1070 H         1 <0>         0.2304
     33 H9         -5.9217    5.1955    0.6200 H         1 <0>         0.1314
     34 H10        -5.8762    5.2374   -1.1589 H         1 <0>         0.1295
     35 H11        -9.0856    0.0586   -1.3939 H         1 <0>         0.1594
     36 H12        -9.6007   -0.7245   -3.9657 H         1 <0>         0.1559
     37 H13        -8.5133   -0.1316   -6.3538 H         1 <0>         0.1568
     38 H14        -6.6544    1.6664   -5.9409 H         1 <0>         0.2003
     39 H15        -8.1938    1.0903    0.9649 H         1 <0>         0.2723
@<TRIPOS>BOND
     1    1    2 1
     2    1   25 1
     3    1   26 1
     4    1   27 1
     5    2    7 ar
     6    2    3 ar
     7    3    4 ar
     8    3   28 1
     9    4    5 ar
    10    4   29 1
    11    5    6 ar
    12    5    8 1
    13    6    7 ar
    14    6   30 1
    15    7   31 1
    16    8    9 am
    17    8   32 1
    18    9   10 2
    19    9   11 1
    20   11   12 1
    21   11   33 1
    22   11   34 1
    23   12   23 am
    24   12   13 am
    25   13   14 2
    26   13   15 1
    27   15   16 2
    28   15   22 1
    29   16   17 1
    30   16   35 1
    31   17   21 1
    32   17   18 2
    33   18   19 1
    34   18   36 1
    35   19   20 2
    36   19   37 1
    37   20   21 1
    38   20   38 1
    39   22   23 am
    40   22   39 1
    41   23   24 2
@<TRIPOS>MOLECULE
ZINC03859117
   39    41     0     0     0
SMALL
USER_CHARGES

@<TRIPOS>ATOM
      1 C1          7.7397   12.7688    0.8827 C.3       1 <0>        -0.2107
      2 C2          7.0133   11.4707    0.5248 C.3       1 <0>        -0.0196
      3 O1          7.9368   10.5562   -0.0693 O.3       1 <0>        -0.1998
      4 C3          7.4487    9.3448   -0.4485 C.ar      1 <0>         0.0744
      5 C4          6.1137    9.0483   -0.2577 C.ar      1 <0>        -0.1845
      6 C5          5.6160    7.7976   -0.6442 C.ar      1 <0>        -0.0518
      7 C6          6.4731    6.8592   -1.2323 C.ar      1 <0>        -0.1302
      8 C7          7.8022    7.1661   -1.4233 C.ar      1 <0>        -0.1203
      9 C8          8.2955    8.4047   -1.0348 C.ar      1 <0>         0.0606
     10 O2          9.6070    8.7016   -1.2268 O.3       1 <0>        -0.2748
     11 C9          4.1988    7.4736   -0.4391 C.2       1 <0>         0.0154
     12 C10         3.7524    6.2112   -0.6607 C.2       1 <0>        -0.3285
     13 C11         2.3674    5.6854   -0.6886 C.2       1 <0>         0.3270
     14 O3          1.4011    6.4061   -0.4962 O.2       1 <0>        -0.2787
     15 N1          2.2366    4.4000   -0.9316 N.2       1 <0>        -0.3707
     16 C12         3.2758    3.6075   -1.1414 C.2       1 <0>         0.0843
     17 S1          4.6707    4.7131   -0.9939 S.3       1 <0>         0.1919
     18 N2          3.2806    2.2618   -1.4030 N.pl3     1 <0>        -0.2151
     19 C13         2.0722    1.5743   -1.5521 C.ar      1 <0>        -0.0161
     20 C14         0.9206    2.2477   -1.9535 C.ar      1 <0>        -0.0889
     21 C15        -0.2522    1.5234   -2.0871 C.ar      1 <0>        -0.1660
     22 C16        -0.2423    0.1667   -1.8199 C.ar      1 <0>        -0.0602
     23 N3          0.8649   -0.4415   -1.4421 N.ar      1 <0>        -0.1441
     24 C17         2.0023    0.2099   -1.3026 C.ar      1 <0>        -0.0711
     25 H1          7.0353   13.4663    1.3358 H         1 <0>         0.0885
     26 H2          8.5424   12.5534    1.5880 H         1 <0>         0.0922
     27 H3          8.1591   13.2114   -0.0208 H         1 <0>         0.0884
     28 H4          6.2107   11.6861   -0.1806 H         1 <0>         0.0731
     29 H5          6.5939   11.0280    1.4283 H         1 <0>         0.0769
     30 H6          5.4560    9.7773    0.1922 H         1 <0>         0.1454
     31 H7          6.0923    5.8951   -1.5355 H         1 <0>         0.1492
     32 H8          8.4623    6.4417   -1.8769 H         1 <0>         0.1493
     33 H9          9.7960    9.1141   -2.0807 H         1 <0>         0.2292
     34 H10         3.5116    8.2398   -0.1119 H         1 <0>         0.1683
     35 H11         4.1223    1.7866   -1.4846 H         1 <0>         0.2612
     36 H12         0.9418    3.3085   -2.1552 H         1 <0>         0.1870
     37 H13        -1.1640    2.0125   -2.3967 H         1 <0>         0.1477
     38 H14        -1.1542   -0.4028   -1.9225 H         1 <0>         0.1637
     39 H15         2.8887   -0.3228   -0.9912 H         1 <0>         0.1574
@<TRIPOS>BOND
     1    1    2 1
     2    1   25 1
     3    1   26 1
     4    1   27 1
     5    2    3 1
     6    2   28 1
     7    2   29 1
     8    3    4 1
     9    4    9 ar
    10    4    5 ar
    11    5    6 ar
    12    5   30 1
    13    6    7 ar
    14    6   11 1
    15    7    8 ar
    16    7   31 1
    17    8    9 ar
    18    8   32 1
    19    9   10 1
    20   10   33 1
    21   11   12 2
    22   11   34 1
    23   12   17 1
    24   12   13 1
    25   13   14 2
    26   13   15 1
    27   15   16 2
    28   16   17 1
    29   16   18 1
    30   18   19 1
    31   18   35 1
    32   19   24 ar
    33   19   20 ar
    34   20   21 ar
    35   20   36 1
    36   21   22 ar
    37   21   37 1
    38   22   23 ar
    39   22   38 1
    40   23   24 ar
    41   24   39 1
@<TRIPOS>MOLECULE
ZINC03859205
   48    50     0     0     0
SMALL
USER_CHARGES

@<TRIPOS>ATOM
      1 C1          4.8301   -2.6919   -0.4284 C.3       1 <0>        -0.1752
      2 C2          3.5035   -2.0141   -0.2003 C.2       1 <0>        -0.2227
      3 C3          2.3924   -2.7272   -0.1820 C.2       1 <0>         0.0278
      4 C4          2.4604   -4.2305   -0.2628 C.3       1 <0>        -0.1402
      5 H1          3.5054   -4.5142   -0.3875 H         1 <0>         0.1767
      6 C5          1.7007   -4.6715   -1.4996 C.2       1 <0>         0.3137
      7 O1          2.0101   -4.2743   -2.6024 O.2       1 <0>        -0.3069
      8 N1          0.6671   -5.5224   -1.3265 N.am      1 <0>        -0.3481
      9 C6          0.3130   -5.9700   -0.1164 C.2       1 <0>         0.3997
     10 O2         -0.6296   -6.7338   -0.0522 O.2       1 <0>        -0.3477
     11 N2          0.9208   -5.6375    1.0282 N.am      1 <0>        -0.2625
     12 C7          1.9763   -4.7966    1.0588 C.2       1 <0>         0.3107
     13 O3          2.5176   -4.5049    2.1037 O.2       1 <0>        -0.2747
     14 C8          0.4474   -6.1800    2.2329 C.ar      1 <0>         0.0023
     15 C9          1.2316   -7.0760    2.9464 C.ar      1 <0>        -0.0596
     16 C10         0.7678   -7.6050    4.1346 C.ar      1 <0>        -0.2162
     17 C11        -0.4866   -7.2504    4.6092 C.ar      1 <0>         0.1116
     18 C12        -1.2729   -6.3591    3.8937 C.ar      1 <0>        -0.1533
     19 C13        -0.8076   -5.8252    2.7083 C.ar      1 <0>        -0.0599
     20 O4         -0.9454   -7.7763    5.7760 O.3       1 <0>        -0.2084
     21 C14        -0.0831   -8.6875    6.4603 C.3       1 <0>        -0.0644
     22 N3          1.1608   -2.0916   -0.0882 N.pl3     1 <0>        -0.3274
     23 C15         1.0873   -0.6948   -0.1499 C.ar      1 <0>        -0.0259
     24 C16         0.7287    0.0332    0.9749 C.ar      1 <0>        -0.0876
     25 C17         0.6564    1.4123    0.9114 C.ar      1 <0>        -0.1840
     26 C18         0.9406    2.0700   -0.2712 C.ar      1 <0>        -0.0810
     27 C19         1.2989    1.3523   -1.3973 C.ar      1 <0>        -0.2098
     28 C20         1.3740   -0.0313   -1.3430 C.ar      1 <0>         0.1208
     29 N4          1.7360   -0.7599   -2.4819 N.pl3     1 <0>        -0.4097
     30 H2          5.6262   -1.9476   -0.4101 H         1 <0>         0.0855
     31 H3          5.0022   -3.4274    0.3575 H         1 <0>         0.0783
     32 H4          4.8214   -3.1908   -1.3974 H         1 <0>         0.0781
     33 H5          3.4617   -0.9452   -0.0519 H         1 <0>         0.1539
     34 H6          0.1663   -5.8184   -2.1027 H         1 <0>         0.2730
     35 H7          2.2061   -7.3560    2.5744 H         1 <0>         0.1388
     36 H8          1.3799   -8.2984    4.6923 H         1 <0>         0.1417
     37 H9         -2.2493   -6.0831    4.2637 H         1 <0>         0.1509
     38 H10        -1.4197   -5.1313    2.1514 H         1 <0>         0.1428
     39 H11         0.1270   -9.5417    5.8167 H         1 <0>         0.0698
     40 H12         0.8503   -8.1844    6.7127 H         1 <0>         0.0705
     41 H13        -0.5690   -9.0313    7.3734 H         1 <0>         0.1108
     42 H14         0.3516   -2.6155    0.0201 H         1 <0>         0.2255
     43 H15         0.5057   -0.4772    1.9001 H         1 <0>         0.1370
     44 H16         0.3770    1.9777    1.7882 H         1 <0>         0.1307
     45 H17         0.8826    3.1475   -0.3154 H         1 <0>         0.1288
     46 H18         1.5245    1.8696   -2.3182 H         1 <0>         0.1318
     47 H19         1.9348   -0.2970   -3.3108 H         1 <0>         0.2188
     48 H20         1.7882   -1.7277   -2.4423 H         1 <0>         0.2353
@<TRIPOS>BOND
     1    1    2 1
     2    1   30 1
     3    1   31 1
     4    1   32 1
     5    2    3 2
     6    2   33 1
     7    3    4 1
     8    3   22 1
     9    4    5 1
    10    4   12 1
    11    4    6 1
    12    6    7 2
    13    6    8 am
    14    8    9 am
    15    8   34 1
    16    9   10 2
    17    9   11 am
    18   11   12 am
    19   11   14 1
    20   12   13 2
    21   14   19 ar
    22   14   15 ar
    23   15   16 ar
    24   15   35 1
    25   16   17 ar
    26   16   36 1
    27   17   18 ar
    28   17   20 1
    29   18   19 ar
    30   18   37 1
    31   19   38 1
    32   20   21 1
    33   21   39 1
    34   21   40 1
    35   21   41 1
    36   22   23 1
    37   22   42 1
    38   23   28 ar
    39   23   24 ar
    40   24   25 ar
    41   24   43 1
    42   25   26 ar
    43   25   44 1
    44   26   27 ar
    45   26   45 1
    46   27   28 ar
    47   27   46 1
    48   28   29 1
    49   29   47 1
    50   29   48 1
@<TRIPOS>MOLECULE
ZINC03859256
   42    45     0     0     0
SMALL
USER_CHARGES

@<TRIPOS>ATOM
      1 C1          1.3172   -0.7397   -0.0145 C.3       1 <0>        -0.1814
      2 C2          0.0021   -0.0041    0.0020 C.2       1 <0>        -0.1414
      3 C3         -0.0157    1.3058    0.0092 C.2       1 <0>        -0.1999
      4 C4         -1.2926   -0.7753    0.0102 C.3       1 <0>         0.0146
      5 N1         -1.6637   -1.1212   -1.3641 N.pl3     1 <0>        -0.0741
      6 C5         -1.3049   -2.2703   -2.0544 C.2       1 <0>        -0.2473
      7 C6         -0.5402   -3.4083   -1.7413 C.2       1 <0>         0.3877
      8 O1         -0.0257   -3.5213   -0.6423 O.2       1 <0>        -0.3705
      9 N2         -0.3828   -4.3740   -2.6701 N.am      1 <0>        -0.3354
     10 H1          0.1601   -5.1846   -2.4505 H         1 <0>         0.2831
     11 C7         -0.9447   -4.2632   -3.8862 C.2       1 <0>         0.4081
     12 O2         -0.7815   -5.1535   -4.6982 O.2       1 <0>        -0.3794
     13 N3         -1.6834   -3.1906   -4.2275 N.am      1 <0>        -0.2354
     14 C8         -1.8815   -2.1656   -3.3159 C.2       1 <0>         0.0965
     15 N4         -2.5456   -1.0101   -3.3603 N.2       1 <0>        -0.1302
     16 C9         -2.4313   -0.3810   -2.2082 C.2       1 <0>        -0.1296
     17 S1         -3.1562    1.1780   -1.8228 S.3       1 <0>         0.4276
     18 C10        -3.9766    1.5186   -3.3444 C.2       1 <0>        -0.1446
     19 N5         -4.7174    2.6367   -3.6037 N.pl3     1 <0>        -0.2105
     20 H2         -4.8875    3.3947   -2.9740 H         1 <0>         0.2562
     21 C11        -5.1888    2.5249   -4.9008 C.ar      1 <0>        -0.0354
     22 C12        -5.9780    3.3286   -5.7097 C.ar      1 <0>        -0.1318
     23 C13        -6.2789    2.9252   -6.9942 C.ar      1 <0>        -0.1071
     24 C14        -5.7969    1.7200   -7.4834 C.ar      1 <0>        -0.1472
     25 C15        -5.0117    0.9096   -6.6946 C.ar      1 <0>        -0.0635
     26 C16        -4.6984    1.3031   -5.3909 C.ar      1 <0>        -0.0517
     27 N6         -3.9626    0.7401   -4.3975 N.2       1 <0>        -0.1075
     28 C17        -2.2788   -3.1071   -5.5634 C.3       1 <0>        -0.0525
     29 H3          1.6441   -0.9226    1.0091 H         1 <0>         0.0890
     30 H4          1.1949   -1.6910   -0.5323 H         1 <0>         0.1078
     31 H5          2.0639   -0.1376   -0.5322 H         1 <0>         0.0812
     32 H6          0.9122    1.8585    0.0033 H         1 <0>         0.1254
     33 H7         -0.9582    1.8330    0.0166 H         1 <0>         0.1089
     34 H8         -1.1684   -1.6876    0.5936 H         1 <0>         0.1419
     35 H9         -2.0772   -0.1633    0.4553 H         1 <0>         0.1041
     36 H10        -6.3559    4.2684   -5.3351 H         1 <0>         0.1271
     37 H11        -6.8936    3.5520   -7.6232 H         1 <0>         0.1341
     38 H12        -6.0391    1.4152   -8.4908 H         1 <0>         0.1349
     39 H13        -4.6398   -0.0275   -7.0819 H         1 <0>         0.1425
     40 H14        -1.5819   -2.6146   -6.2416 H         1 <0>         0.0862
     41 H15        -2.4933   -4.1112   -5.9290 H         1 <0>         0.1081
     42 H16        -3.2041   -2.5331   -5.5136 H         1 <0>         0.1113
@<TRIPOS>BOND
     1    1    2 1
     2    1   29 1
     3    1   30 1
     4    1   31 1
     5    2    3 2
     6    2    4 1
     7    3   32 1
     8    3   33 1
     9    4    5 1
    10    4   34 1
    11    4   35 1
    12    5   16 1
    13    5    6 1
    14    6   14 2
    15    6    7 1
    16    7    8 2
    17    7    9 am
    18    9   10 1
    19    9   11 am
    20   11   12 2
    21   11   13 am
    22   13   14 1
    23   13   28 1
    24   14   15 1
    25   15   16 2
    26   16   17 1
    27   17   18 1
    28   18   27 2
    29   18   19 1
    30   19   20 1
    31   19   21 1
    32   21   26 ar
    33   21   22 ar
    34   22   23 ar
    35   22   36 1
    36   23   24 ar
    37   23   37 1
    38   24   25 ar
    39   24   38 1
    40   25   26 ar
    41   25   39 1
    42   26   27 1
    43   28   40 1
    44   28   41 1
    45   28   42 1
@<TRIPOS>MOLECULE
ZINC03859256
   44    47     0     0     0
SMALL
USER_CHARGES

@<TRIPOS>ATOM
      1 C1          1.3172   -0.7397   -0.0145 C.3       1 <0>        -0.1818
      2 C2          0.0021   -0.0041    0.0020 C.2       1 <0>        -0.1747
      3 C3         -0.0157    1.3058    0.0092 C.2       1 <0>        -0.1489
      4 C4         -1.2926   -0.7753    0.0102 C.3       1 <0>        -0.0084
      5 N1         -1.6637   -1.1212   -1.3641 N.pl3     1 <0>         0.0578
      6 C5         -1.3049   -2.2703   -2.0544 C.2       1 <0>        -0.1431
      7 C6         -0.5402   -3.4083   -1.7413 C.2       1 <0>         0.3683
      8 O1         -0.0257   -3.5213   -0.6423 O.2       1 <0>        -0.2644
      9 N2         -0.3828   -4.3740   -2.6701 N.am      1 <0>        -0.3154
     10 H1          0.1601   -5.1846   -2.4505 H         1 <0>         0.3288
     11 C7         -0.9447   -4.2632   -3.8862 C.2       1 <0>         0.4041
     12 O2         -0.7815   -5.1535   -4.6982 O.2       1 <0>        -0.2639
     13 N3         -1.6834   -3.1906   -4.2275 N.am      1 <0>        -0.2399
     14 C8         -1.8815   -2.1656   -3.3159 C.2       1 <0>         0.1401
     15 C9         -2.4313   -0.3810   -2.2082 C.cat     1 <0>        -0.1859
     16 S1         -3.1562    1.1780   -1.8228 S.3       1 <0>         0.6466
     17 C10        -3.9766    1.5186   -3.3444 C.cat     1 <0>        -0.1033
     18 N4         -4.7174    2.6367   -3.6037 N.pl3     1 <0>        -0.0901
     19 H2         -4.8875    3.3947   -2.9740 H         1 <0>         0.3263
     20 C11        -5.1888    2.5249   -4.9008 C.ar      1 <0>         0.0005
     21 C12        -5.9780    3.3286   -5.7097 C.ar      1 <0>        -0.0850
     22 C13        -6.2789    2.9252   -6.9942 C.ar      1 <0>        -0.0480
     23 C14        -5.7969    1.7200   -7.4834 C.ar      1 <0>        -0.0483
     24 C15        -5.0117    0.9096   -6.6946 C.ar      1 <0>        -0.1033
     25 C16        -4.6984    1.3031   -5.3909 C.ar      1 <0>        -0.0484
     26 C17        -2.2788   -3.1071   -5.5634 C.3       1 <0>        -0.0731
     27 H3          1.6441   -0.9226    1.0091 H         1 <0>         0.1265
     28 H4          1.1949   -1.6910   -0.5323 H         1 <0>         0.0912
     29 H5          2.0639   -0.1376   -0.5322 H         1 <0>         0.1063
     30 H6          0.9122    1.8585    0.0033 H         1 <0>         0.1663
     31 H7         -0.9582    1.8330    0.0166 H         1 <0>         0.0977
     32 H8         -1.1684   -1.6876    0.5936 H         1 <0>         0.1904
     33 H9         -2.0772   -0.1633    0.4553 H         1 <0>         0.1306
     34 H10        -6.3559    4.2684   -5.3351 H         1 <0>         0.1822
     35 H11        -6.8936    3.5520   -7.6232 H         1 <0>         0.1940
     36 H12        -6.0391    1.4152   -8.4908 H         1 <0>         0.1907
     37 H13        -4.6398   -0.0275   -7.0819 H         1 <0>         0.1605
     38 H14        -1.5819   -2.6146   -6.2416 H         1 <0>         0.1181
     39 H15        -2.4933   -4.1112   -5.9290 H         1 <0>         0.1724
     40 H16        -3.2041   -2.5331   -5.5136 H         1 <0>         0.0599
     41 N5         -2.5472   -1.0090   -3.3627 N.pl3     1 <0>        -0.1841
     42 H17        -3.0703   -0.6609   -4.1748 H         1 <0>         0.3151
     43 N6         -3.9621    0.7392   -4.3976 N.pl3     1 <0>        -0.1713
     44 H18        -3.4700   -0.1596   -4.4624 H         1 <0>         0.3069
@<TRIPOS>BOND
     1    1    2 1
     2    1   27 1
     3    1   28 1
     4    1   29 1
     5    2    3 2
     6    2    4 1
     7    3   30 1
     8    3   31 1
     9    4    5 1
    10    4   32 1
    11    4   33 1
    12    5   15 1
    13    5    6 1
    14    6   14 2
    15    6    7 1
    16    7    8 2
    17    7    9 am
    18    9   10 1
    19    9   11 am
    20   11   12 2
    21   11   13 am
    22   13   14 1
    23   13   26 1
    24   14   41 1
    25   15   16 1
    26   15   41 2
    27   16   17 1
    28   17   18 1
    29   17   43 2
    30   18   19 1
    31   18   20 1
    32   20   25 ar
    33   20   21 ar
    34   21   22 ar
    35   21   34 1
    36   22   23 ar
    37   22   35 1
    38   23   24 ar
    39   23   36 1
    40   24   25 ar
    41   24   37 1
    42   25   43 1
    43   26   38 1
    44   26   39 1
    45   26   40 1
    46   41   42 1
    47   43   44 1
@<TRIPOS>MOLECULE
ZINC03859256
   43    46     0     0     0
SMALL
USER_CHARGES

@<TRIPOS>ATOM
      1 C1          1.3172   -0.7397   -0.0145 C.3       1 <0>        -0.1811
      2 C2          0.0021   -0.0041    0.0020 C.2       1 <0>        -0.1668
      3 C3         -0.0157    1.3058    0.0092 C.2       1 <0>        -0.1662
      4 C4         -1.2926   -0.7753    0.0102 C.3       1 <0>         0.0073
      5 N1         -1.6637   -1.1212   -1.3641 N.pl3     1 <0>        -0.0088
      6 C5         -1.3049   -2.2703   -2.0544 C.2       1 <0>        -0.1846
      7 C6         -0.5402   -3.4083   -1.7413 C.2       1 <0>         0.3788
      8 O1         -0.0257   -3.5213   -0.6423 O.2       1 <0>        -0.3075
      9 N2         -0.3828   -4.3740   -2.6701 N.am      1 <0>        -0.3250
     10 H1          0.1601   -5.1846   -2.4505 H         1 <0>         0.3100
     11 C7         -0.9447   -4.2632   -3.8862 C.2       1 <0>         0.4089
     12 O2         -0.7815   -5.1535   -4.6982 O.2       1 <0>        -0.3110
     13 N3         -1.6834   -3.1906   -4.2275 N.am      1 <0>        -0.2449
     14 C8         -1.8815   -2.1656   -3.3159 C.2       1 <0>         0.1276
     15 C9         -2.4313   -0.3810   -2.2082 C.cat     1 <0>        -0.0978
     16 S1         -3.1562    1.1780   -1.8228 S.3       1 <0>         0.5365
     17 C10        -3.9766    1.5186   -3.3444 C.2       1 <0>        -0.1615
     18 N4         -4.7174    2.6367   -3.6037 N.pl3     1 <0>        -0.1714
     19 H2         -4.8875    3.3947   -2.9740 H         1 <0>         0.2806
     20 C11        -5.1888    2.5249   -4.9008 C.ar      1 <0>        -0.0142
     21 C12        -5.9780    3.3286   -5.7097 C.ar      1 <0>        -0.1187
     22 C13        -6.2789    2.9252   -6.9942 C.ar      1 <0>        -0.0794
     23 C14        -5.7969    1.7200   -7.4834 C.ar      1 <0>        -0.1115
     24 C15        -5.0117    0.9096   -6.6946 C.ar      1 <0>        -0.0798
     25 C16        -4.6984    1.3031   -5.3909 C.ar      1 <0>        -0.0433
     26 N5         -3.9626    0.7401   -4.3975 N.2       1 <0>        -0.2424
     27 C17        -2.2788   -3.1071   -5.5634 C.3       1 <0>        -0.0695
     28 H3          1.6441   -0.9226    1.0091 H         1 <0>         0.1095
     29 H4          1.1949   -1.6910   -0.5323 H         1 <0>         0.0964
     30 H5          2.0639   -0.1376   -0.5322 H         1 <0>         0.0956
     31 H6          0.9122    1.8585    0.0033 H         1 <0>         0.1483
     32 H7         -0.9582    1.8330    0.0166 H         1 <0>         0.1063
     33 H8         -1.1684   -1.6876    0.5936 H         1 <0>         0.1688
     34 H9         -2.0772   -0.1633    0.4553 H         1 <0>         0.1229
     35 H10        -6.3559    4.2684   -5.3351 H         1 <0>         0.1490
     36 H11        -6.8936    3.5520   -7.6232 H         1 <0>         0.1587
     37 H12        -6.0391    1.4152   -8.4908 H         1 <0>         0.1567
     38 H13        -4.6398   -0.0275   -7.0819 H         1 <0>         0.1434
     39 H14        -1.5819   -2.6146   -6.2416 H         1 <0>         0.1073
     40 H15        -2.4933   -4.1112   -5.9290 H         1 <0>         0.1464
     41 H16        -3.2041   -2.5331   -5.5136 H         1 <0>         0.0891
     42 N6         -2.5472   -1.0090   -3.3627 N.pl3     1 <0>        -0.1193
     43 H17        -3.0703   -0.6609   -4.1748 H         1 <0>         0.3566
@<TRIPOS>BOND
     1    1    2 1
     2    1   28 1
     3    1   29 1
     4    1   30 1
     5    2    3 2
     6    2    4 1
     7    3   31 1
     8    3   32 1
     9    4    5 1
    10    4   33 1
    11    4   34 1
    12    5   15 1
    13    5    6 1
    14    6   14 2
    15    6    7 1
    16    7    8 2
    17    7    9 am
    18    9   10 1
    19    9   11 am
    20   11   12 2
    21   11   13 am
    22   13   14 1
    23   13   27 1
    24   14   42 1
    25   15   16 1
    26   15   42 2
    27   16   17 1
    28   17   26 2
    29   17   18 1
    30   18   19 1
    31   18   20 1
    32   20   25 ar
    33   20   21 ar
    34   21   22 ar
    35   21   35 1
    36   22   23 ar
    37   22   36 1
    38   23   24 ar
    39   23   37 1
    40   24   25 ar
    41   24   38 1
    42   25   26 1
    43   27   39 1
    44   27   40 1
    45   27   41 1
    46   42   43 1
@<TRIPOS>MOLECULE
ZINC03859303
   41    43     0     0     0
SMALL
USER_CHARGES

@<TRIPOS>ATOM
      1 C1          4.0477    0.5507   -1.4762 C.3       1 <0>        -0.2350
      2 C2          3.5521    0.5662   -0.0288 C.3       1 <0>        -0.0154
      3 N1          2.0886    0.6330   -0.0145 N.pl3     1 <0>        -0.1735
      4 C3          1.3221    1.7811   -0.0010 C.ar      1 <0>        -0.0403
      5 C4          1.6137    3.1384    0.0031 C.ar      1 <0>        -0.1297
      6 C5          0.5863    4.0575    0.0175 C.ar      1 <0>        -0.1077
      7 C6         -0.7354    3.6348    0.0278 C.ar      1 <0>        -0.1467
      8 C7         -1.0412    2.3034    0.0294 C.ar      1 <0>        -0.0636
      9 C8         -0.0163    1.3536    0.0095 C.ar      1 <0>        -0.0539
     10 N2          0.0021   -0.0041    0.0020 N.2       1 <0>        -0.1539
     11 C9          1.2332   -0.4247   -0.0120 C.2       1 <0>        -0.0136
     12 C10         1.6507   -1.8727   -0.0230 C.3       1 <0>         0.0747
     13 N3          1.7731   -2.3351   -1.4077 N.pl3     1 <0>        -0.3670
     14 C11         2.1512   -3.6533   -1.6729 C.ar      1 <0>         0.1691
     15 C12         2.4171   -4.5255   -0.6249 C.ar      1 <0>        -0.2351
     16 C13         2.7860   -5.8296   -0.8907 C.ar      1 <0>         0.0231
     17 C14         2.9010   -6.2645   -2.1983 C.ar      1 <0>        -0.8197
     18 C15         2.6422   -5.3974   -3.2440 C.ar      1 <0>         0.0156
     19 C16         2.2677   -4.0935   -2.9853 C.ar      1 <0>        -0.2274
     20 S1          3.3780   -7.9274   -2.5329 S.o2      1 <0>         2.7662
     21 O1          3.0336   -8.6878   -1.3829 O.2       1 <0>        -0.9236
     22 O2          2.8838   -8.2388   -3.8282 O.2       1 <0>        -0.9190
     23 N4          5.0305   -7.9510   -2.6385 N.pl3     1 <0>        -0.9302
     24 H1          3.7205    1.4591   -1.9821 H         1 <0>         0.0911
     25 H2          5.1366    0.5010   -1.4869 H         1 <0>         0.0892
     26 H3          3.6393   -0.3190   -1.9908 H         1 <0>         0.0860
     27 H4          3.9605    1.4359    0.4858 H         1 <0>         0.1050
     28 H5          3.8793   -0.3422    0.4771 H         1 <0>         0.1004
     29 H6          2.6406    3.4727   -0.0046 H         1 <0>         0.1268
     30 H7          0.8117    5.1137    0.0203 H         1 <0>         0.1338
     31 H8         -1.5303    4.3658    0.0387 H         1 <0>         0.1349
     32 H9         -2.0732    1.9854    0.0424 H         1 <0>         0.1439
     33 H10         2.6113   -1.9777    0.4814 H         1 <0>         0.0865
     34 H11         0.9011   -2.4709    0.4950 H         1 <0>         0.1210
     35 H12         1.5916   -1.7259   -2.1403 H         1 <0>         0.2415
     36 H13         2.3317   -4.1853    0.3965 H         1 <0>         0.1362
     37 H14         2.9889   -6.5094   -0.0763 H         1 <0>         0.1514
     38 H15         2.7326   -5.7403   -4.2641 H         1 <0>         0.1511
     39 H16         2.0653   -3.4169   -3.8024 H         1 <0>         0.1374
     40 H17         5.5211   -8.7491   -2.3873 H         1 <0>         0.2416
     41 H18         5.5077   -7.1667   -2.9515 H         1 <0>         0.2289
@<TRIPOS>BOND
     1    1    2 1
     2    1   24 1
     3    1   25 1
     4    1   26 1
     5    2    3 1
     6    2   27 1
     7    2   28 1
     8    3   11 1
     9    3    4 1
    10    4    9 ar
    11    4    5 ar
    12    5    6 ar
    13    5   29 1
    14    6    7 ar
    15    6   30 1
    16    7    8 ar
    17    7   31 1
    18    8    9 ar
    19    8   32 1
    20    9   10 1
    21   10   11 2
    22   11   12 1
    23   12   13 1
    24   12   33 1
    25   12   34 1
    26   13   14 1
    27   13   35 1
    28   14   19 ar
    29   14   15 ar
    30   15   16 ar
    31   15   36 1
    32   16   17 ar
    33   16   37 1
    34   17   18 ar
    35   17   20 1
    36   18   19 ar
    37   18   38 1
    38   19   39 1
    39   20   21 2
    40   20   22 2
    41   20   23 1
    42   23   40 1
    43   23   41 1
@<TRIPOS>MOLECULE
ZINC03859303
   42    44     0     0     0
SMALL
USER_CHARGES

@<TRIPOS>ATOM
      1 C1          4.0477    0.5507   -1.4762 C.3       1 <0>        -0.2379
      2 C2          3.5521    0.5662   -0.0288 C.3       1 <0>        -0.0280
      3 N1          2.0886    0.6330   -0.0145 N.pl3     1 <0>        -0.0939
      4 C3          1.3221    1.7811   -0.0010 C.ar      1 <0>        -0.0149
      5 C4          1.6137    3.1384    0.0031 C.ar      1 <0>        -0.1020
      6 C5          0.5863    4.0575    0.0175 C.ar      1 <0>        -0.0696
      7 C6         -0.7354    3.6348    0.0278 C.ar      1 <0>        -0.0819
      8 C7         -1.0412    2.3034    0.0294 C.ar      1 <0>        -0.0900
      9 C8         -0.0163    1.3536    0.0095 C.ar      1 <0>        -0.0506
     10 C9          1.2332   -0.4247   -0.0120 C.cat     1 <0>         0.0929
     11 C10         1.6507   -1.8727   -0.0230 C.3       1 <0>         0.0480
     12 N2          1.7731   -2.3351   -1.4077 N.pl3     1 <0>        -0.3952
     13 C11         2.1512   -3.6533   -1.6729 C.ar      1 <0>         0.1408
     14 C12         2.4171   -4.5255   -0.6249 C.ar      1 <0>        -0.2289
     15 C13         2.7860   -5.8296   -0.8907 C.ar      1 <0>         0.0282
     16 C14         2.9010   -6.2645   -2.1983 C.ar      1 <0>        -0.7940
     17 C15         2.6422   -5.3974   -3.2440 C.ar      1 <0>         0.0220
     18 C16         2.2677   -4.0935   -2.9853 C.ar      1 <0>        -0.2091
     19 S1          3.3780   -7.9274   -2.5329 S.o2      1 <0>         2.7624
     20 O1          3.0336   -8.6878   -1.3829 O.2       1 <0>        -0.9093
     21 O2          2.8838   -8.2388   -3.8282 O.2       1 <0>        -0.9020
     22 N3          5.0305   -7.9510   -2.6385 N.pl3     1 <0>        -0.9269
     23 H1          3.7205    1.4591   -1.9821 H         1 <0>         0.1001
     24 H2          5.1366    0.5010   -1.4869 H         1 <0>         0.1257
     25 H3          3.6393   -0.3190   -1.9908 H         1 <0>         0.0935
     26 H4          3.9605    1.4359    0.4858 H         1 <0>         0.1366
     27 H5          3.8793   -0.3422    0.4771 H         1 <0>         0.1256
     28 H6          2.6406    3.4727   -0.0046 H         1 <0>         0.1620
     29 H7          0.8117    5.1137    0.0203 H         1 <0>         0.1721
     30 H8         -1.5303    4.3658    0.0387 H         1 <0>         0.1726
     31 H9         -2.0732    1.9854    0.0424 H         1 <0>         0.1629
     32 H10         2.6113   -1.9777    0.4814 H         1 <0>         0.1256
     33 H11         0.9011   -2.4709    0.4950 H         1 <0>         0.1260
     34 H12         1.5916   -1.7259   -2.1403 H         1 <0>         0.2394
     35 H13         2.3317   -4.1853    0.3965 H         1 <0>         0.1276
     36 H14         2.9889   -6.5094   -0.0763 H         1 <0>         0.1646
     37 H15         2.7326   -5.7403   -4.2641 H         1 <0>         0.1662
     38 H16         2.0653   -3.4169   -3.8024 H         1 <0>         0.1403
     39 H17         5.5211   -8.7491   -2.3873 H         1 <0>         0.2513
     40 H18         5.5077   -7.1667   -2.9515 H         1 <0>         0.2295
     41 N4          0.0012   -0.0047    0.0020 N.pl3     1 <0>        -0.0979
     42 H19        -0.8298   -0.6077    0.0067 H         1 <0>         0.3161
@<TRIPOS>BOND
     1    1    2 1
     2    1   23 1
     3    1   24 1
     4    1   25 1
     5    2    3 1
     6    2   26 1
     7    2   27 1
     8    3   10 1
     9    3    4 1
    10    4    9 ar
    11    4    5 ar
    12    5    6 ar
    13    5   28 1
    14    6    7 ar
    15    6   29 1
    16    7    8 ar
    17    7   30 1
    18    8    9 ar
    19    8   31 1
    20    9   41 1
    21   10   11 1
    22   10   41 2
    23   11   12 1
    24   11   32 1
    25   11   33 1
    26   12   13 1
    27   12   34 1
    28   13   18 ar
    29   13   14 ar
    30   14   15 ar
    31   14   35 1
    32   15   16 ar
    33   15   36 1
    34   16   17 ar
    35   16   19 1
    36   17   18 ar
    37   17   37 1
    38   18   38 1
    39   19   20 2
    40   19   21 2
    41   19   22 1
    42   22   39 1
    43   22   40 1
    44   41   42 1
@<TRIPOS>MOLECULE
ZINC03859309
   40    41     0     0     0
SMALL
USER_CHARGES

@<TRIPOS>ATOM
      1 C1         -6.0451    5.5787   -0.5370 C.3       1 <0>        -0.2382
      2 C2         -4.6583    4.9890   -0.5453 C.2       1 <0>         0.3018
      3 O1         -3.7529    5.5762   -1.0991 O.2       1 <0>        -0.3545
      4 N1         -4.4241    3.8091    0.0626 N.am      1 <0>        -0.3294
      5 C3         -3.1582    3.2165   -0.0229 C.ar      1 <0>         0.0456
      6 C4         -3.0418    1.8343   -0.0925 C.ar      1 <0>        -0.1311
      7 C5         -1.7942    1.2500   -0.1768 C.ar      1 <0>        -0.1375
      8 C6         -0.6547    2.0447   -0.1920 C.ar      1 <0>         0.0279
      9 C7         -0.7711    3.4270   -0.1166 C.ar      1 <0>        -0.1554
     10 C8         -2.0191    4.0111   -0.0376 C.ar      1 <0>        -0.0927
     11 N2          0.6098    1.4528   -0.2775 N.pl3     1 <0>        -0.2240
     12 C9          1.7157    2.2246   -0.2978 C.2       1 <0>         0.1713
     13 C10         2.9684    1.6387   -0.2742 C.2       1 <0>        -0.4206
     14 C11         4.1951    2.4499   -0.1798 C.2       1 <0>         0.3751
     15 O2          4.1382    3.6638   -0.1196 O.2       1 <0>        -0.3565
     16 N3          5.3824    1.8100   -0.1565 N.am      1 <0>        -0.3394
     17 C12         5.4596    0.4738   -0.2283 C.2       1 <0>         0.4112
     18 O3          6.5604   -0.0410   -0.2080 O.2       1 <0>        -0.3756
     19 N4          4.3871   -0.3249   -0.3209 N.am      1 <0>        -0.2981
     20 C13         3.1351    0.1764   -0.3487 C.2       1 <0>         0.3812
     21 O4          2.1694   -0.5589   -0.4334 O.2       1 <0>        -0.3896
     22 C14         4.5790   -1.7754   -0.3931 C.3       1 <0>         0.0205
     23 C15         4.7079   -2.1940   -1.8351 C.2       1 <0>        -0.1972
     24 C16         5.7550   -2.8760   -2.2281 C.2       1 <0>        -0.1898
     25 H1         -6.1643    6.2146    0.3403 H         1 <0>         0.1076
     26 H2         -6.1928    6.1726   -1.4390 H         1 <0>         0.1210
     27 H3         -6.7813    4.7755   -0.5063 H         1 <0>         0.0851
     28 H4         -5.1324    3.3704    0.5593 H         1 <0>         0.2338
     29 H5         -3.9276    1.2165   -0.0804 H         1 <0>         0.1374
     30 H6         -1.7038    0.1752   -0.2313 H         1 <0>         0.1438
     31 H7          0.1148    4.0447   -0.1239 H         1 <0>         0.1431
     32 H8         -2.1098    5.0859    0.0169 H         1 <0>         0.1743
     33 H9          0.6911    0.4874   -0.3261 H         1 <0>         0.2855
     34 H10         1.6230    3.3000   -0.3325 H         1 <0>         0.1849
     35 H11         6.1992    2.3291   -0.0910 H         1 <0>         0.2705
     36 H12         5.4852   -2.0494    0.1471 H         1 <0>         0.1219
     37 H13         3.7224   -2.2781    0.0560 H         1 <0>         0.1200
     38 H14         3.9369   -1.9316   -2.5444 H         1 <0>         0.1323
     39 H15         5.8473   -3.1759   -3.2615 H         1 <0>         0.1151
     40 H16         6.5259   -3.1383   -1.5187 H         1 <0>         0.1188
@<TRIPOS>BOND
     1    1    2 1
     2    1   25 1
     3    1   26 1
     4    1   27 1
     5    2    3 2
     6    2    4 am
     7    4    5 1
     8    4   28 1
     9    5   10 ar
    10    5    6 ar
    11    6    7 ar
    12    6   29 1
    13    7    8 ar
    14    7   30 1
    15    8    9 ar
    16    8   11 1
    17    9   10 ar
    18    9   31 1
    19   10   32 1
    20   11   12 1
    21   11   33 1
    22   12   13 2
    23   12   34 1
    24   13   20 1
    25   13   14 1
    26   14   15 2
    27   14   16 am
    28   16   17 am
    29   16   35 1
    30   17   18 2
    31   17   19 am
    32   19   20 am
    33   19   22 1
    34   20   21 2
    35   22   23 1
    36   22   36 1
    37   22   37 1
    38   23   24 2
    39   23   38 1
    40   24   39 1
    41   24   40 1
@<TRIPOS>MOLECULE
ZINC03859350
   42    45     0     0     0
SMALL
USER_CHARGES

@<TRIPOS>ATOM
      1 C1          0.0361   -4.2033   -0.4701 C.3       1 <0>        -0.0514
      2 N1         -0.7478   -3.0056   -0.1579 N.am      1 <0>        -0.2389
      3 C2         -0.1351   -1.7617   -0.1388 C.2       1 <0>         0.1459
      4 C3         -0.9056   -0.6394    0.1618 C.2       1 <0>        -0.2833
      5 C4         -2.2738   -0.8006    0.4347 C.2       1 <0>         0.3911
      6 O1         -2.9669    0.1665    0.6990 O.2       1 <0>        -0.3673
      7 N2         -2.8133   -2.0365    0.4010 N.am      1 <0>        -0.3382
      8 H1         -3.7872   -2.1537    0.5953 H         1 <0>         0.2822
      9 C5         -2.0628   -3.1130    0.1104 C.2       1 <0>         0.4120
     10 O2         -2.5845   -4.2112    0.0891 O.2       1 <0>        -0.3812
     11 N3         -0.0473    0.4491    0.1090 N.pl3     1 <0>        -0.0184
     12 C6          0.0466    1.8184    0.2536 C.2       1 <0>        -0.1033
     13 C7          1.3208    2.1796    0.0243 C.2       1 <0>        -0.0028
     14 N4          2.0444    1.0313   -0.2688 N.pl3     1 <0>        -0.1500
     15 C8          1.1826   -0.0326   -0.2122 C.2       1 <0>         0.1105
     16 N5          1.1108   -1.3478   -0.3554 N.2       1 <0>        -0.2303
     17 C9          3.4740    0.9686   -0.5828 C.3       1 <0>        -0.0037
     18 C10         3.6638    0.9829   -2.1009 C.3       1 <0>        -0.1942
     19 C11         5.1579    1.0208   -2.4278 C.3       1 <0>         0.0021
     20 O3          5.3352    1.0342   -3.8457 O.3       1 <0>        -0.3480
     21 C12         1.8576    3.5575    0.0751 C.ar      1 <0>        -0.0197
     22 C13         3.0288    3.8788   -0.6115 C.ar      1 <0>        -0.1349
     23 C14         3.5213    5.1668   -0.5644 C.ar      1 <0>        -0.1220
     24 C15         2.8624    6.1360    0.1706 C.ar      1 <0>        -0.1172
     25 C16         1.7036    5.8224    0.8583 C.ar      1 <0>        -0.1200
     26 C17         1.1977    4.5395    0.8145 C.ar      1 <0>        -0.1056
     27 H2          0.4439   -4.6208    0.4506 H         1 <0>         0.0852
     28 H3         -0.6050   -4.9419   -0.9513 H         1 <0>         0.1114
     29 H4          0.8526   -3.9383   -1.1417 H         1 <0>         0.1033
     30 H5         -0.7652    2.4855    0.5035 H         1 <0>         0.2028
     31 H6          3.9802    1.8290   -0.1452 H         1 <0>         0.1136
     32 H7          3.8962    0.0512   -0.1725 H         1 <0>         0.1169
     33 H8          3.2205    0.0847   -2.5310 H         1 <0>         0.1210
     34 H9          3.1777    1.8641   -2.5196 H         1 <0>         0.1082
     35 H10         5.6012    1.9190   -1.9977 H         1 <0>         0.0540
     36 H11         5.6440    0.1396   -2.0092 H         1 <0>         0.0635
     37 H12         6.2603    1.0582   -4.1262 H         1 <0>         0.2155
     38 H13         3.5465    3.1219   -1.1821 H         1 <0>         0.1426
     39 H14         4.4255    5.4178   -1.0991 H         1 <0>         0.1351
     40 H15         3.2540    7.1419    0.2074 H         1 <0>         0.1352
     41 H16         1.1938    6.5835    1.4304 H         1 <0>         0.1384
     42 H17         0.2927    4.2961    1.3512 H         1 <0>         0.1396
@<TRIPOS>BOND
     1    1    2 1
     2    1   27 1
     3    1   28 1
     4    1   29 1
     5    2    9 am
     6    2    3 1
     7    3   16 1
     8    3    4 2
     9    4    5 1
    10    4   11 1
    11    5    6 2
    12    5    7 am
    13    7    8 1
    14    7    9 am
    15    9   10 2
    16   11   15 1
    17   11   12 1
    18   12   13 2
    19   12   30 1
    20   13   14 1
    21   13   21 1
    22   14   15 1
    23   14   17 1
    24   15   16 2
    25   17   18 1
    26   17   31 1
    27   17   32 1
    28   18   19 1
    29   18   33 1
    30   18   34 1
    31   19   20 1
    32   19   35 1
    33   19   36 1
    34   20   37 1
    35   21   26 ar
    36   21   22 ar
    37   22   23 ar
    38   22   38 1
    39   23   24 ar
    40   23   39 1
    41   24   25 ar
    42   24   40 1
    43   25   26 ar
    44   25   41 1
    45   26   42 1
@<TRIPOS>MOLECULE
ZINC03859350
   43    46     0     0     0
SMALL
USER_CHARGES

@<TRIPOS>ATOM
      1 C1          0.0361   -4.2033   -0.4701 C.3       1 <0>        -0.0703
      2 N1         -0.7478   -3.0056   -0.1579 N.am      1 <0>        -0.2454
      3 C2         -0.1351   -1.7617   -0.1388 C.2       1 <0>         0.1730
      4 C3         -0.9056   -0.6394    0.1618 C.2       1 <0>        -0.1967
      5 C4         -2.2738   -0.8006    0.4347 C.2       1 <0>         0.3799
      6 O1         -2.9669    0.1665    0.6990 O.2       1 <0>        -0.2994
      7 N2         -2.8133   -2.0365    0.4010 N.am      1 <0>        -0.3262
      8 H1         -3.7872   -2.1537    0.5953 H         1 <0>         0.3108
      9 C5         -2.0628   -3.1130    0.1104 C.2       1 <0>         0.4104
     10 O2         -2.5845   -4.2112    0.0891 O.2       1 <0>        -0.3090
     11 N3         -0.0473    0.4491    0.1090 N.pl3     1 <0>         0.0411
     12 C6          0.0466    1.8184    0.2536 C.2       1 <0>        -0.0996
     13 C7          1.3208    2.1796    0.0243 C.2       1 <0>         0.0636
     14 N4          2.0444    1.0313   -0.2688 N.pl3     1 <0>        -0.1138
     15 C8          1.1826   -0.0326   -0.2122 C.cat     1 <0>         0.0953
     16 C9          3.4740    0.9686   -0.5828 C.3       1 <0>        -0.0300
     17 C10         3.6638    0.9829   -2.1009 C.3       1 <0>        -0.1961
     18 C11         5.1579    1.0208   -2.4278 C.3       1 <0>         0.0069
     19 O3          5.3352    1.0342   -3.8457 O.3       1 <0>        -0.3437
     20 C12         1.8576    3.5575    0.0751 C.ar      1 <0>        -0.0686
     21 C13         3.0288    3.8788   -0.6115 C.ar      1 <0>        -0.1248
     22 C14         3.5213    5.1668   -0.5644 C.ar      1 <0>        -0.1140
     23 C15         2.8624    6.1360    0.1706 C.ar      1 <0>        -0.0830
     24 C16         1.7036    5.8224    0.8583 C.ar      1 <0>        -0.1105
     25 C17         1.1977    4.5395    0.8145 C.ar      1 <0>        -0.0867
     26 H2          0.4439   -4.6208    0.4506 H         1 <0>         0.1089
     27 H3         -0.6050   -4.9419   -0.9513 H         1 <0>         0.1522
     28 H4          0.8526   -3.9383   -1.1417 H         1 <0>         0.0812
     29 H5         -0.7652    2.4855    0.5035 H         1 <0>         0.2372
     30 H6          3.9802    1.8290   -0.1452 H         1 <0>         0.1514
     31 H7          3.8962    0.0512   -0.1725 H         1 <0>         0.1115
     32 H8          3.2205    0.0847   -2.5310 H         1 <0>         0.1018
     33 H9          3.1777    1.8641   -2.5196 H         1 <0>         0.1249
     34 H10         5.6012    1.9190   -1.9977 H         1 <0>         0.0682
     35 H11         5.6440    0.1396   -2.0092 H         1 <0>         0.0646
     36 H12         6.2603    1.0582   -4.1262 H         1 <0>         0.2345
     37 H13         3.5465    3.1219   -1.1821 H         1 <0>         0.1352
     38 H14         4.4255    5.4178   -1.0991 H         1 <0>         0.1512
     39 H15         3.2540    7.1419    0.2074 H         1 <0>         0.1549
     40 H16         1.1938    6.5835    1.4304 H         1 <0>         0.1568
     41 H17         0.2927    4.2961    1.3512 H         1 <0>         0.1414
     42 N5          1.1133   -1.3498   -0.3562 N.pl3     1 <0>        -0.1457
     43 H18         1.9029   -1.9598   -0.5986 H         1 <0>         0.3062
@<TRIPOS>BOND
     1    1    2 1
     2    1   26 1
     3    1   27 1
     4    1   28 1
     5    2    9 am
     6    2    3 1
     7    3    4 2
     8    3   42 1
     9    4    5 1
    10    4   11 1
    11    5    6 2
    12    5    7 am
    13    7    8 1
    14    7    9 am
    15    9   10 2
    16   11   15 1
    17   11   12 1
    18   12   13 2
    19   12   29 1
    20   13   14 1
    21   13   20 1
    22   14   15 1
    23   14   16 1
    24   15   42 2
    25   16   17 1
    26   16   30 1
    27   16   31 1
    28   17   18 1
    29   17   32 1
    30   17   33 1
    31   18   19 1
    32   18   34 1
    33   18   35 1
    34   19   36 1
    35   20   25 ar
    36   20   21 ar
    37   21   22 ar
    38   21   37 1
    39   22   23 ar
    40   22   38 1
    41   23   24 ar
    42   23   39 1
    43   24   25 ar
    44   24   40 1
    45   25   41 1
    46   42   43 1
@<TRIPOS>MOLECULE
ZINC03859546
   42    45     0     0     0
SMALL
USER_CHARGES

@<TRIPOS>ATOM
      1 C1          8.8274   -6.0989    1.1222 C.3       1 <0>        -0.0672
      2 O1          8.7862   -4.8148    0.4965 O.3       1 <0>        -0.1933
      3 C2          7.5748   -4.2085    0.4134 C.ar      1 <0>         0.1070
      4 C3          6.4476   -4.8403    0.9259 C.ar      1 <0>        -0.2297
      5 C4          5.2164   -4.2320    0.8448 C.ar      1 <0>        -0.0524
      6 C5          5.0968   -2.9699    0.2433 C.ar      1 <0>        -0.1432
      7 C6          6.2351   -2.3364   -0.2785 C.ar      1 <0>        -0.0286
      8 C7          7.4654   -2.9530   -0.1867 C.ar      1 <0>         0.0319
      9 O2          8.5717   -2.3398   -0.6862 O.3       1 <0>        -0.2681
     10 C8          3.7896   -2.3196    0.1552 C.2       1 <0>         0.1021
     11 C9          3.6586   -0.9841    0.4850 C.2       1 <0>        -0.2848
     12 C10         4.7577   -0.2374    1.1286 C.2       1 <0>         0.3444
     13 O3          5.8146   -0.7809    1.3880 O.2       1 <0>        -0.3131
     14 N1          4.5574    1.0641    1.4215 N.am      1 <0>        -0.3400
     15 C11         3.3978    1.6752    1.1416 C.2       1 <0>         0.4044
     16 O4          3.2825    2.8498    1.4316 O.2       1 <0>        -0.3504
     17 N2          2.3587    1.0612    0.5589 N.am      1 <0>        -0.2574
     18 C12         2.4119   -0.2418    0.2140 C.2       1 <0>         0.3539
     19 O5          1.4599   -0.7891   -0.3096 O.2       1 <0>        -0.3175
     20 C13         1.1864    1.7893    0.3069 C.ar      1 <0>         0.0540
     21 C14         0.7940    2.0423   -1.0005 C.ar      1 <0>        -0.0962
     22 C15        -0.3573    2.7640   -1.2504 C.ar      1 <0>        -0.1096
     23 C16        -1.1291    3.2284   -0.1975 C.ar      1 <0>         0.0163
     24 C17        -0.7378    2.9760    1.1153 C.ar      1 <0>         0.0092
     25 C18         0.4192    2.2570    1.3645 C.ar      1 <0>        -0.0853
     26 O6         -1.6527    3.5374    1.9588 O.3       1 <0>        -0.2038
     27 C19        -2.8201    3.7820    1.1524 C.3       1 <0>         0.1072
     28 O7         -2.2897    3.9481   -0.1758 O.3       1 <0>        -0.2059
     29 H1          8.4712   -6.0143    2.1489 H         1 <0>         0.0732
     30 H2          8.1902   -6.7916    0.5725 H         1 <0>         0.0672
     31 H3          9.8522   -6.4701    1.1226 H         1 <0>         0.1134
     32 H4          6.5386   -5.8119    1.3887 H         1 <0>         0.1426
     33 H5          4.3425   -4.7253    1.2442 H         1 <0>         0.1353
     34 H6          6.1487   -1.3669   -0.7466 H         1 <0>         0.1497
     35 H7          8.7524   -2.5485   -1.6129 H         1 <0>         0.2213
     36 H8          2.9268   -2.8833   -0.1676 H         1 <0>         0.1636
     37 H9          5.2690    1.5693    1.8448 H         1 <0>         0.2750
     38 H10         1.3917    1.6783   -1.8231 H         1 <0>         0.1483
     39 H11        -0.6582    2.9634   -2.2683 H         1 <0>         0.1496
     40 H12         0.7245    2.0605    2.3817 H         1 <0>         0.1546
     41 H13        -3.4974    2.9288    1.1904 H         1 <0>         0.0897
     42 H14        -3.3275    4.6899    1.4786 H         1 <0>         0.1323
@<TRIPOS>BOND
     1    1    2 1
     2    1   29 1
     3    1   30 1
     4    1   31 1
     5    2    3 1
     6    3    8 ar
     7    3    4 ar
     8    4    5 ar
     9    4   32 1
    10    5    6 ar
    11    5   33 1
    12    6    7 ar
    13    6   10 1
    14    7    8 ar
    15    7   34 1
    16    8    9 1
    17    9   35 1
    18   10   11 2
    19   10   36 1
    20   11   18 1
    21   11   12 1
    22   12   13 2
    23   12   14 am
    24   14   15 am
    25   14   37 1
    26   15   16 2
    27   15   17 am
    28   17   18 am
    29   17   20 1
    30   18   19 2
    31   20   25 ar
    32   20   21 ar
    33   21   22 ar
    34   21   38 1
    35   22   23 ar
    36   22   39 1
    37   23   28 1
    38   23   24 ar
    39   24   25 ar
    40   24   26 1
    41   25   40 1
    42   26   27 1
    43   27   28 1
    44   27   41 1
    45   27   42 1
@<TRIPOS>MOLECULE
ZINC03859547
   42    45     0     0     0
SMALL
USER_CHARGES

@<TRIPOS>ATOM
      1 C1          4.9066    4.8112    1.9979 C.3       1 <0>        -0.0677
      2 O1          3.5467    4.6417    2.4028 O.3       1 <0>        -0.1945
      3 C2          3.3010    3.7162    3.3645 C.ar      1 <0>         0.1069
      4 C3          4.3518    2.9856    3.9072 C.ar      1 <0>        -0.2209
      5 C4          4.1104    2.0462    4.8827 C.ar      1 <0>        -0.0064
      6 C5          2.7998    1.8238    5.3321 C.ar      1 <0>        -0.1421
      7 C6          1.7404    2.5624    4.7830 C.ar      1 <0>        -0.0780
      8 C7          1.9947    3.5055    3.8092 C.ar      1 <0>         0.0276
      9 O2          0.9715    4.2269    3.2783 O.3       1 <0>        -0.2739
     10 C8          2.5388    0.8263    6.3694 C.2       1 <0>         0.1082
     11 C9          3.1011   -0.4325    6.2746 C.2       1 <0>        -0.2893
     12 C10         3.0539   -1.3850    7.4017 C.2       1 <0>         0.3520
     13 O3          2.5153   -1.0859    8.4505 O.2       1 <0>        -0.3279
     14 N1          3.6243   -2.5962    7.2361 N.am      1 <0>        -0.3405
     15 C11         4.2207   -2.9388    6.0858 C.2       1 <0>         0.4056
     16 O4          4.7157   -4.0457    6.0025 O.2       1 <0>        -0.3527
     17 N2          4.3013   -2.1268    5.0226 N.am      1 <0>        -0.2619
     18 C12         3.7702   -0.8868    5.0398 C.2       1 <0>         0.3499
     19 O5          3.8449   -0.1614    4.0662 O.2       1 <0>        -0.3080
     20 C13         4.9473   -2.5792    3.8625 C.ar      1 <0>         0.0571
     21 C14         4.2168   -3.2003    2.8586 C.ar      1 <0>        -0.0936
     22 C15         4.8515   -3.6465    1.7154 C.ar      1 <0>        -0.1093
     23 C16         6.2186   -3.4755    1.5674 C.ar      1 <0>         0.0193
     24 C17         6.9541   -2.8527    2.5731 C.ar      1 <0>         0.0081
     25 C18         6.3158   -2.4009    3.7160 C.ar      1 <0>        -0.0885
     26 O6          8.2638   -2.8064    2.1909 O.3       1 <0>        -0.2058
     27 C19         8.3885   -3.7693    1.1277 C.3       1 <0>         0.1074
     28 O7          7.0684   -3.8194    0.5550 O.3       1 <0>        -0.2057
     29 H1          5.2881    3.8698    1.6027 H         1 <0>         0.0726
     30 H2          5.5062    5.1145    2.8562 H         1 <0>         0.0708
     31 H3          4.9629    5.5787    1.2260 H         1 <0>         0.1127
     32 H4          5.3609    3.1563    3.5621 H         1 <0>         0.1449
     33 H5          4.9289    1.4804    5.3026 H         1 <0>         0.1373
     34 H6          0.7296    2.3958    5.1248 H         1 <0>         0.1471
     35 H7          0.5633    3.8185    2.5026 H         1 <0>         0.2255
     36 H8          1.9067    1.0734    7.2095 H         1 <0>         0.1657
     37 H9          3.6020   -3.2341    7.9665 H         1 <0>         0.2743
     38 H10         3.1512   -3.3351    2.9715 H         1 <0>         0.1484
     39 H11         4.2812   -4.1297    0.9359 H         1 <0>         0.1502
     40 H12         6.8835   -1.9137    4.4950 H         1 <0>         0.1506
     41 H13         8.6708   -4.7443    1.5251 H         1 <0>         0.0925
     42 H14         9.1143   -3.4314    0.3881 H         1 <0>         0.1320
@<TRIPOS>BOND
     1    1    2 1
     2    1   29 1
     3    1   30 1
     4    1   31 1
     5    2    3 1
     6    3    8 ar
     7    3    4 ar
     8    4    5 ar
     9    4   32 1
    10    5    6 ar
    11    5   33 1
    12    6    7 ar
    13    6   10 1
    14    7    8 ar
    15    7   34 1
    16    8    9 1
    17    9   35 1
    18   10   11 2
    19   10   36 1
    20   11   18 1
    21   11   12 1
    22   12   13 2
    23   12   14 am
    24   14   15 am
    25   14   37 1
    26   15   16 2
    27   15   17 am
    28   17   18 am
    29   17   20 1
    30   18   19 2
    31   20   25 ar
    32   20   21 ar
    33   21   22 ar
    34   21   38 1
    35   22   23 ar
    36   22   39 1
    37   23   28 1
    38   23   24 ar
    39   24   25 ar
    40   24   26 1
    41   25   40 1
    42   26   27 1
    43   27   28 1
    44   27   41 1
    45   27   42 1
@<TRIPOS>MOLECULE
ZINC03859924
   38    41     0     0     0
SMALL
USER_CHARGES

@<TRIPOS>ATOM
      1 C1         -6.9457   -3.0394   -0.4188 C.3       1 <0>        -0.0646
      2 O1         -5.7470   -2.2669   -0.3275 O.3       1 <0>        -0.1969
      3 C2         -5.8824   -0.9141   -0.3364 C.ar      1 <0>         0.0850
      4 C3         -7.1392   -0.3450   -0.4301 C.ar      1 <0>        -0.1763
      5 C4         -7.2926    1.0328   -0.4398 C.ar      1 <0>        -0.1173
      6 C5         -6.1896    1.8548   -0.3562 C.ar      1 <0>        -0.0816
      7 C6         -4.9159    1.2946   -0.2607 C.ar      1 <0>        -0.1614
      8 C7         -4.7531   -0.0987   -0.2504 C.ar      1 <0>         0.0747
      9 O2         -3.5239   -0.6456   -0.1591 O.3       1 <0>        -0.0860
     10 C8         -2.4049    0.0693   -0.0794 C.2       1 <0>         0.1523
     11 C9         -2.4127    1.4516   -0.0723 C.2       1 <0>        -0.3163
     12 C10        -3.7134    2.1466   -0.1691 C.2       1 <0>         0.3287
     13 O3         -3.7897    3.3619   -0.1736 O.2       1 <0>        -0.3032
     14 C11        -1.2021    2.1847    0.0197 C.2       1 <0>         0.0800
     15 C12        -0.2062    1.7667    0.8777 C.2       1 <0>        -0.2962
     16 C13         1.1420    2.3960    0.8742 C.2       1 <0>         0.1791
     17 N1          1.3432    3.6479    0.5582 N.2       1 <0>        -0.3045
     18 N2          2.1822    1.5197    1.2426 N.pl3     1 <0>        -0.1584
     19 N3          3.5185    1.7269    0.9608 N.pl3     1 <0>        -0.2809
     20 H1          3.7979    2.4779    0.4142 H         1 <0>         0.2831
     21 C14         4.4590    0.8340    1.4778 C.2       1 <0>        -0.0790
     22 C15         5.7848    0.8603    1.3716 C.2       1 <0>        -0.2782
     23 S1          3.4219   -0.3525    2.3192 S.3       1 <0>         0.3536
     24 C16         1.8500    0.3797    1.9474 C.2       1 <0>         0.0714
     25 N4          0.6513   -0.0303    2.2704 N.2       1 <0>        -0.2696
     26 C17        -0.4245    0.6650    1.8437 C.2       1 <0>         0.3245
     27 O4         -1.5448    0.3938    2.2427 O.2       1 <0>        -0.2902
     28 H2         -7.5945   -2.8045    0.4251 H         1 <0>         0.0709
     29 H3         -7.4606   -2.8027   -1.3499 H         1 <0>         0.0679
     30 H4         -6.6965   -4.1004   -0.4010 H         1 <0>         0.1156
     31 H5         -8.0101   -0.9802   -0.4969 H         1 <0>         0.1464
     32 H6         -8.2802    1.4636   -0.5135 H         1 <0>         0.1413
     33 H7         -6.3111    2.9279   -0.3635 H         1 <0>         0.1608
     34 H8         -1.4589   -0.4476   -0.0140 H         1 <0>         0.1995
     35 H9         -1.0600    3.0702   -0.5820 H         1 <0>         0.1483
     36 H10         0.5939    4.2122    0.3111 H         1 <0>         0.1875
     37 H11         6.3790    0.0868    1.8352 H         1 <0>         0.1500
     38 H12         6.2669    1.6550    0.8217 H         1 <0>         0.1401
@<TRIPOS>BOND
     1    1    2 1
     2    1   28 1
     3    1   29 1
     4    1   30 1
     5    2    3 1
     6    3    8 ar
     7    3    4 ar
     8    4    5 ar
     9    4   31 1
    10    5    6 ar
    11    5   32 1
    12    6    7 ar
    13    6   33 1
    14    7   12 1
    15    7    8 ar
    16    8    9 1
    17    9   10 1
    18   10   11 2
    19   10   34 1
    20   11   12 1
    21   11   14 1
    22   12   13 2
    23   14   15 2
    24   14   35 1
    25   15   26 1
    26   15   16 1
    27   16   17 2
    28   16   18 1
    29   17   36 1
    30   18   24 1
    31   18   19 1
    32   19   20 1
    33   19   21 1
    34   21   22 2
    35   21   23 1
    36   22   37 1
    37   22   38 1
    38   23   24 1
    39   24   25 2
    40   25   26 1
    41   26   27 2
@<TRIPOS>MOLECULE
ZINC03859952
   43    45     0     0     0
SMALL
USER_CHARGES

@<TRIPOS>ATOM
      1 C1         -8.3323   -2.4728    0.0262 C.3       1 <0>        -0.0651
      2 O1         -8.4301   -1.0471    0.0349 O.3       1 <0>        -0.1943
      3 C2         -7.2639   -0.3484    0.0336 C.ar      1 <0>         0.0788
      4 C3         -6.0525   -1.0236    0.0247 C.ar      1 <0>        -0.1875
      5 C4         -4.8667   -0.3185    0.0176 C.ar      1 <0>        -0.1167
      6 C5         -4.8841    1.0761    0.0311 C.ar      1 <0>        -0.0446
      7 C6         -6.1021    1.7557    0.0405 C.ar      1 <0>        -0.1691
      8 C7         -7.2879    1.0441    0.0418 C.ar      1 <0>         0.0724
      9 O2         -8.4771    1.7038    0.0515 O.3       1 <0>        -0.1949
     10 C8         -8.4266    3.1319    0.0600 C.3       1 <0>        -0.0656
     11 C9         -3.6120    1.8338    0.0291 C.2       1 <0>         0.1119
     12 C10        -3.6300    3.1675    0.0365 C.2       1 <0>        -0.3549
     13 N1         -2.3943    1.1527    0.0197 N.pl3     1 <0>        -0.2706
     14 N2         -1.1906    1.8696    0.0179 N.am      1 <0>        -0.2653
     15 C11        -0.0144    1.2117    0.0087 C.2       1 <0>         0.3486
     16 O3          0.0021   -0.0041    0.0020 O.2       1 <0>        -0.3828
     17 C12         1.2537    1.9670    0.0007 C.ar      1 <0>        -0.1146
     18 C13         1.2332    3.3686    0.0084 C.ar      1 <0>        -0.1279
     19 C14         2.3960    4.0774    0.0015 C.ar      1 <0>        -0.0744
     20 C15         3.6258    3.4081   -0.0133 C.ar      1 <0>        -0.0264
     21 C16         3.6539    2.0012   -0.0212 C.ar      1 <0>        -0.0662
     22 C17         2.4693    1.2853   -0.0088 C.ar      1 <0>        -0.0522
     23 N3          4.9896    1.6472   -0.0353 N.pl3     1 <0>        -0.2191
     24 H1          5.3564    0.7170   -0.0437 H         1 <0>         0.2583
     25 C18         5.7117    2.7979   -0.0357 C.2       1 <0>        -0.0159
     26 N4          4.9147    3.8277   -0.0229 N.2       1 <0>        -0.1782
     27 H2         -7.7988   -2.7949   -0.8681 H         1 <0>         0.0671
     28 H3         -7.7907   -2.8052    0.9118 H         1 <0>         0.0671
     29 H4         -9.3326   -2.9056    0.0283 H         1 <0>         0.1107
     30 H5         -6.0374   -2.1034    0.0184 H         1 <0>         0.1433
     31 H6         -3.9246   -0.8465    0.0061 H         1 <0>         0.1332
     32 H7         -6.1191    2.8356    0.0465 H         1 <0>         0.1507
     33 H8         -9.4408    3.5312    0.0672 H         1 <0>         0.1107
     34 H9         -7.8961    3.4714    0.9495 H         1 <0>         0.0671
     35 H10        -7.9045    3.4823   -0.8304 H         1 <0>         0.0671
     36 H11        -4.5726    3.6947    0.0438 H         1 <0>         0.1267
     37 H12        -2.7022    3.7202    0.0351 H         1 <0>         0.1053
     38 H13        -2.3811    0.1828    0.0143 H         1 <0>         0.2743
     39 H14        -1.2038    2.8395    0.0232 H         1 <0>         0.2573
     40 H15         0.2877    3.8904    0.0202 H         1 <0>         0.1275
     41 H16         2.3696    5.1570    0.0079 H         1 <0>         0.1474
     42 H17         2.4868    0.2055   -0.0103 H         1 <0>         0.1554
     43 H18         6.7904    2.8510   -0.0448 H         1 <0>         0.2058
@<TRIPOS>BOND
     1    1    2 1
     2    1   27 1
     3    1   28 1
     4    1   29 1
     5    2    3 1
     6    3    8 ar
     7    3    4 ar
     8    4    5 ar
     9    4   30 1
    10    5    6 ar
    11    5   31 1
    12    6    7 ar
    13    6   11 1
    14    7    8 ar
    15    7   32 1
    16    8    9 1
    17    9   10 1
    18   10   33 1
    19   10   34 1
    20   10   35 1
    21   11   12 2
    22   11   13 1
    23   12   36 1
    24   12   37 1
    25   13   14 1
    26   13   38 1
    27   14   15 am
    28   14   39 1
    29   15   16 2
    30   15   17 1
    31   17   22 ar
    32   17   18 ar
    33   18   19 ar
    34   18   40 1
    35   19   20 ar
    36   19   41 1
    37   20   26 1
    38   20   21 ar
    39   21   22 ar
    40   21   23 1
    41   22   42 1
    42   23   24 1
    43   23   25 1
    44   25   26 2
    45   25   43 1
@<TRIPOS>MOLECULE
ZINC03859952
   44    46     0     0     0
SMALL
USER_CHARGES

@<TRIPOS>ATOM
      1 C1         -8.3323   -2.4728    0.0262 C.3       1 <0>        -0.0669
      2 O1         -8.4301   -1.0471    0.0349 O.3       1 <0>        -0.1877
      3 C2         -7.2639   -0.3484    0.0336 C.ar      1 <0>         0.0922
      4 C3         -6.0525   -1.0236    0.0247 C.ar      1 <0>        -0.1878
      5 C4         -4.8667   -0.3185    0.0176 C.ar      1 <0>        -0.1151
      6 C5         -4.8841    1.0761    0.0311 C.ar      1 <0>        -0.0595
      7 C6         -6.1021    1.7557    0.0405 C.ar      1 <0>        -0.1667
      8 C7         -7.2879    1.0441    0.0418 C.ar      1 <0>         0.0778
      9 O2         -8.4771    1.7038    0.0515 O.3       1 <0>        -0.1880
     10 C8         -8.4266    3.1319    0.0600 C.3       1 <0>        -0.0662
     11 C9         -3.6120    1.8338    0.0291 C.2       1 <0>         0.1175
     12 C10        -3.6300    3.1675    0.0365 C.2       1 <0>        -0.3479
     13 N1         -2.3943    1.1527    0.0197 N.pl3     1 <0>        -0.2696
     14 N2         -1.1906    1.8696    0.0179 N.am      1 <0>        -0.2433
     15 C11        -0.0144    1.2117    0.0087 C.2       1 <0>         0.3260
     16 O3          0.0021   -0.0041    0.0020 O.2       1 <0>        -0.3493
     17 C12         1.2537    1.9670    0.0007 C.ar      1 <0>        -0.0540
     18 C13         1.2332    3.3686    0.0084 C.ar      1 <0>        -0.0718
     19 C14         2.3960    4.0774    0.0015 C.ar      1 <0>        -0.0905
     20 C15         3.6258    3.4081   -0.0133 C.ar      1 <0>        -0.0432
     21 C16         3.6539    2.0012   -0.0212 C.ar      1 <0>        -0.0216
     22 C17         2.4693    1.2853   -0.0088 C.ar      1 <0>        -0.0433
     23 N3          4.9896    1.6472   -0.0353 N.pl3     1 <0>        -0.1385
     24 H1          5.3564    0.7170   -0.0437 H         1 <0>         0.3164
     25 C18         5.7117    2.7979   -0.0357 C.cat     1 <0>         0.0894
     26 H2         -7.7988   -2.7949   -0.8681 H         1 <0>         0.0683
     27 H3         -7.7907   -2.8052    0.9118 H         1 <0>         0.0683
     28 H4         -9.3326   -2.9056    0.0283 H         1 <0>         0.1187
     29 H5         -6.0374   -2.1034    0.0184 H         1 <0>         0.1481
     30 H6         -3.9246   -0.8465    0.0061 H         1 <0>         0.1263
     31 H7         -6.1191    2.8356    0.0465 H         1 <0>         0.1498
     32 H8         -9.4408    3.5312    0.0672 H         1 <0>         0.1183
     33 H9         -7.8961    3.4714    0.9495 H         1 <0>         0.0660
     34 H10        -7.9045    3.4823   -0.8304 H         1 <0>         0.0659
     35 H11        -4.5726    3.6947    0.0438 H         1 <0>         0.1401
     36 H12        -2.7022    3.7202    0.0351 H         1 <0>         0.0908
     37 H13        -2.3811    0.1828    0.0143 H         1 <0>         0.2819
     38 H14        -1.2038    2.8395    0.0232 H         1 <0>         0.2555
     39 H15         0.2877    3.8904    0.0202 H         1 <0>         0.1664
     40 H16         2.3696    5.1570    0.0079 H         1 <0>         0.1663
     41 H17         2.4868    0.2055   -0.0103 H         1 <0>         0.1923
     42 H18         6.7904    2.8510   -0.0448 H         1 <0>         0.2504
     43 N4          4.9152    3.8291   -0.0229 N.pl3     1 <0>        -0.1021
     44 H19         5.2174    4.8104   -0.0204 H         1 <0>         0.3204
@<TRIPOS>BOND
     1    1    2 1
     2    1   26 1
     3    1   27 1
     4    1   28 1
     5    2    3 1
     6    3    8 ar
     7    3    4 ar
     8    4    5 ar
     9    4   29 1
    10    5    6 ar
    11    5   30 1
    12    6    7 ar
    13    6   11 1
    14    7    8 ar
    15    7   31 1
    16    8    9 1
    17    9   10 1
    18   10   32 1
    19   10   33 1
    20   10   34 1
    21   11   12 2
    22   11   13 1
    23   12   35 1
    24   12   36 1
    25   13   14 1
    26   13   37 1
    27   14   15 am
    28   14   38 1
    29   15   16 2
    30   15   17 1
    31   17   22 ar
    32   17   18 ar
    33   18   19 ar
    34   18   39 1
    35   19   20 ar
    36   19   40 1
    37   20   21 ar
    38   20   43 1
    39   21   22 ar
    40   21   23 1
    41   22   41 1
    42   23   24 1
    43   23   25 1
    44   25   42 1
    45   25   43 2
    46   43   44 1
@<TRIPOS>MOLECULE
ZINC03860009
   45    47     0     0     0
SMALL
USER_CHARGES

@<TRIPOS>ATOM
      1 C1         -2.5262    1.2750   -4.2728 C.3       1 <0>        -0.2326
      2 C2         -1.1795    1.8589   -4.7047 C.3       1 <0>         0.0168
      3 C3         -1.1045    3.3295   -4.2894 C.3       1 <0>        -0.2327
      4 N1         -0.0950    1.1137   -4.0607 N.pl3     1 <0>        -0.0667
      5 C4          0.9196    0.4107   -4.6972 C.2       1 <0>        -0.2481
      6 C5          1.2571    0.1708   -6.0405 C.2       1 <0>         0.3874
      7 O1          0.5805    0.6406   -6.9388 O.2       1 <0>        -0.3647
      8 N2          2.3381   -0.5846   -6.3250 N.am      1 <0>        -0.3354
      9 H1          2.5808   -0.7571   -7.2796 H         1 <0>         0.2842
     10 C6          3.0938   -1.1089   -5.3448 C.2       1 <0>         0.4097
     11 O2          4.0612   -1.7845   -5.6387 O.2       1 <0>        -0.3788
     12 N3          2.8062   -0.9039   -4.0456 N.am      1 <0>        -0.2396
     13 C7          1.7083   -0.1365   -3.6905 C.2       1 <0>         0.1016
     14 N4          1.1836    0.2334   -2.5217 N.2       1 <0>        -0.2233
     15 C8          0.1149    0.9787   -2.7234 C.2       1 <0>        -0.1266
     16 S1         -0.8890    1.6834   -1.4584 S.3       1 <0>         0.3376
     17 C9         -0.0164    1.0800    0.0081 C.3       1 <0>        -0.3193
     18 C10        -0.7170    1.5732    1.2478 C.2       1 <0>         0.3171
     19 O3         -1.7087    2.2645    1.1496 O.2       1 <0>        -0.3449
     20 N5         -0.2416    1.2460    2.4658 N.am      1 <0>        -0.3190
     21 C11        -0.8333    1.7819    3.6149 C.ar      1 <0>         0.0544
     22 C12        -0.0525    2.0858    4.7224 C.ar      1 <0>        -0.1572
     23 C13        -0.6388    2.6201    5.8531 C.ar      1 <0>        -0.1120
     24 C14        -2.0033    2.8422    5.8871 C.ar      1 <0>        -0.1398
     25 C15        -2.7843    2.5349    4.7881 C.ar      1 <0>        -0.1119
     26 C16        -2.2033    2.0057    3.6524 C.ar      1 <0>        -0.1245
     27 C17         3.6546   -1.4927   -3.0065 C.3       1 <0>        -0.0504
     28 H2         -2.6252    1.3523   -3.1901 H         1 <0>         0.0941
     29 H3         -3.3331    1.8294   -4.7519 H         1 <0>         0.0967
     30 H4         -2.5796    0.2273   -4.5687 H         1 <0>         0.0926
     31 H5         -1.0805    1.7816   -5.7875 H         1 <0>         0.1518
     32 H6         -0.1452    3.7455   -4.5971 H         1 <0>         0.0929
     33 H7         -1.9114    3.8840   -4.7686 H         1 <0>         0.0967
     34 H8         -1.2036    3.4068   -3.2067 H         1 <0>         0.0943
     35 H9         -0.0094   -0.0099    0.0039 H         1 <0>         0.1377
     36 H10         1.0089    1.4500   -0.0014 H         1 <0>         0.1393
     37 H11         0.5108    0.6389    2.5457 H         1 <0>         0.2351
     38 H12         1.0125    1.9084    4.6982 H         1 <0>         0.1290
     39 H13        -0.0316    2.8605    6.7133 H         1 <0>         0.1321
     40 H14        -2.4599    3.2562    6.7739 H         1 <0>         0.1308
     41 H15        -3.8498    2.7092    4.8179 H         1 <0>         0.1352
     42 H16        -2.8139    1.7659    2.7944 H         1 <0>         0.1638
     43 H17         3.2769   -2.4814   -2.7460 H         1 <0>         0.0851
     44 H18         4.6758   -1.5800   -3.3774 H         1 <0>         0.1123
     45 H19         3.6424   -0.8547   -2.1228 H         1 <0>         0.0993
@<TRIPOS>BOND
     1    1    2 1
     2    1   28 1
     3    1   29 1
     4    1   30 1
     5    2    3 1
     6    2    4 1
     7    2   31 1
     8    3   32 1
     9    3   33 1
    10    3   34 1
    11    4   15 1
    12    4    5 1
    13    5   13 2
    14    5    6 1
    15    6    7 2
    16    6    8 am
    17    8    9 1
    18    8   10 am
    19   10   11 2
    20   10   12 am
    21   12   13 1
    22   12   27 1
    23   13   14 1
    24   14   15 2
    25   15   16 1
    26   16   17 1
    27   17   18 1
    28   17   35 1
    29   17   36 1
    30   18   19 2
    31   18   20 am
    32   20   21 1
    33   20   37 1
    34   21   26 ar
    35   21   22 ar
    36   22   23 ar
    37   22   38 1
    38   23   24 ar
    39   23   39 1
    40   24   25 ar
    41   24   40 1
    42   25   26 ar
    43   25   41 1
    44   26   42 1
    45   27   43 1
    46   27   44 1
    47   27   45 1
@<TRIPOS>MOLECULE
ZINC03860009
   46    48     0     0     0
SMALL
USER_CHARGES

@<TRIPOS>ATOM
      1 C1         -2.5262    1.2750   -4.2728 C.3       1 <0>        -0.2354
      2 C2         -1.1795    1.8589   -4.7047 C.3       1 <0>         0.0053
      3 C3         -1.1045    3.3295   -4.2894 C.3       1 <0>        -0.2354
      4 N1         -0.0950    1.1137   -4.0607 N.pl3     1 <0>        -0.0043
      5 C4          0.9196    0.4107   -4.6972 C.2       1 <0>        -0.1759
      6 C5          1.2571    0.1708   -6.0405 C.2       1 <0>         0.3778
      7 O1          0.5805    0.6406   -6.9388 O.2       1 <0>        -0.2987
      8 N2          2.3381   -0.5846   -6.3250 N.am      1 <0>        -0.3236
      9 H1          2.5808   -0.7571   -7.2796 H         1 <0>         0.3130
     10 C6          3.0938   -1.1089   -5.3448 C.2       1 <0>         0.4092
     11 O2          4.0612   -1.7845   -5.6387 O.2       1 <0>        -0.3049
     12 N3          2.8062   -0.9039   -4.0456 N.am      1 <0>        -0.2471
     13 C7          1.7083   -0.1365   -3.6905 C.2       1 <0>         0.1256
     14 C8          0.1149    0.9787   -2.7234 C.cat     1 <0>        -0.1021
     15 S1         -0.8890    1.6834   -1.4584 S.3       1 <0>         0.4747
     16 C9         -0.0164    1.0800    0.0081 C.3       1 <0>        -0.3770
     17 C10        -0.7170    1.5732    1.2478 C.2       1 <0>         0.3221
     18 O3         -1.7087    2.2645    1.1496 O.2       1 <0>        -0.3253
     19 N4         -0.2416    1.2460    2.4658 N.am      1 <0>        -0.2985
     20 C11        -0.8333    1.7819    3.6149 C.ar      1 <0>         0.0284
     21 C12        -0.0525    2.0858    4.7224 C.ar      1 <0>        -0.1462
     22 C13        -0.6388    2.6201    5.8531 C.ar      1 <0>        -0.1054
     23 C14        -2.0033    2.8422    5.8871 C.ar      1 <0>        -0.1201
     24 C15        -2.7843    2.5349    4.7881 C.ar      1 <0>        -0.1068
     25 C16        -2.2033    2.0057    3.6524 C.ar      1 <0>        -0.1207
     26 C17         3.6546   -1.4927   -3.0065 C.3       1 <0>        -0.0692
     27 H2         -2.6252    1.3523   -3.1901 H         1 <0>         0.0913
     28 H3         -3.3331    1.8294   -4.7519 H         1 <0>         0.1316
     29 H4         -2.5796    0.2273   -4.5687 H         1 <0>         0.1032
     30 H5         -1.0805    1.7816   -5.7875 H         1 <0>         0.1778
     31 H6         -0.1452    3.7455   -4.5971 H         1 <0>         0.1035
     32 H7         -1.9114    3.8840   -4.7686 H         1 <0>         0.1315
     33 H8         -1.2036    3.4068   -3.2067 H         1 <0>         0.0916
     34 H9         -0.0094   -0.0099    0.0039 H         1 <0>         0.1262
     35 H10         1.0089    1.4500   -0.0014 H         1 <0>         0.1280
     36 H11         0.5108    0.6389    2.5457 H         1 <0>         0.2331
     37 H12         1.0125    1.9084    4.6982 H         1 <0>         0.1300
     38 H13        -0.0316    2.8605    6.7133 H         1 <0>         0.1439
     39 H14        -2.4599    3.2562    6.7739 H         1 <0>         0.1437
     40 H15        -3.8498    2.7092    4.8179 H         1 <0>         0.1448
     41 H16        -2.8139    1.7659    2.7944 H         1 <0>         0.1573
     42 H17         3.2769   -2.4814   -2.7460 H         1 <0>         0.1090
     43 H18         4.6758   -1.5800   -3.3774 H         1 <0>         0.1533
     44 H19         3.6424   -0.8547   -2.1228 H         1 <0>         0.0771
     45 N5          1.1848    0.2326   -2.5188 N.pl3     1 <0>        -0.1419
     46 H20         1.5580   -0.0250   -1.5976 H         1 <0>         0.3055
@<TRIPOS>BOND
     1    1    2 1
     2    1   27 1
     3    1   28 1
     4    1   29 1
     5    2    3 1
     6    2    4 1
     7    2   30 1
     8    3   31 1
     9    3   32 1
    10    3   33 1
    11    4   14 1
    12    4    5 1
    13    5   13 2
    14    5    6 1
    15    6    7 2
    16    6    8 am
    17    8    9 1
    18    8   10 am
    19   10   11 2
    20   10   12 am
    21   12   13 1
    22   12   26 1
    23   13   45 1
    24   14   15 1
    25   14   45 2
    26   15   16 1
    27   16   17 1
    28   16   34 1
    29   16   35 1
    30   17   18 2
    31   17   19 am
    32   19   20 1
    33   19   36 1
    34   20   25 ar
    35   20   21 ar
    36   21   22 ar
    37   21   37 1
    38   22   23 ar
    39   22   38 1
    40   23   24 ar
    41   23   39 1
    42   24   25 ar
    43   24   40 1
    44   25   41 1
    45   26   42 1
    46   26   43 1
    47   26   44 1
    48   45   46 1
@<TRIPOS>MOLECULE
ZINC03860916
   45    48     0     0     0
SMALL
USER_CHARGES

@<TRIPOS>ATOM
      1 C1         -4.8849    5.9387    3.8394 C.3       1 <0>        -0.1744
      2 C2         -3.8763    5.9305    2.7197 C.ar      1 <0>        -0.0981
      3 C3         -3.7548    4.8200    1.9067 C.ar      1 <0>        -0.0825
      4 C4         -2.8261    4.8100    0.8827 C.ar      1 <0>        -0.0833
      5 C5         -2.0245    5.9150    0.6621 C.ar      1 <0>        -0.1093
      6 C6         -2.1464    7.0300    1.4683 C.ar      1 <0>        -0.1505
      7 C7         -3.0738    7.0404    2.5003 C.ar      1 <0>         0.0787
      8 O1         -3.1953    8.1361    3.2951 O.3       1 <0>        -0.2906
      9 C8         -2.6914    3.5950    0.0013 C.3       1 <0>         0.1939
     10 C9         -1.3695    2.9318    0.2815 C.ar      1 <0>        -0.0638
     11 C10        -0.1134    3.4557    0.5412 C.ar      1 <0>        -0.1002
     12 C11         0.9611    2.6133    0.7490 C.ar      1 <0>        -0.0820
     13 C12         0.7992    1.2411    0.6988 C.ar      1 <0>        -0.1351
     14 C13        -0.4552    0.7097    0.4450 C.ar      1 <0>         0.0126
     15 C14        -1.5178    1.5510    0.2428 C.ar      1 <0>        -0.7362
     16 S1         -3.2462    1.3099   -0.0607 S.o2      1 <0>         2.7255
     17 O2         -3.7407    0.4286    0.9383 O.2       1 <0>        -0.8971
     18 O3         -3.4085    1.0799   -1.4536 O.2       1 <0>        -0.9029
     19 O4         -3.7992    2.7169    0.2456 O.3       1 <0>        -0.6241
     20 C15        -2.7231    4.0341   -1.4400 C.ar      1 <0>        -0.1257
     21 C16        -1.5490    4.3851   -2.0806 C.ar      1 <0>        -0.1029
     22 C17        -1.5753    4.7874   -3.4017 C.ar      1 <0>        -0.1515
     23 C18        -2.7814    4.8395   -4.0859 C.ar      1 <0>         0.0875
     24 C19        -3.9578    4.4873   -3.4409 C.ar      1 <0>        -0.0932
     25 C20        -3.9253    4.0797   -2.1211 C.ar      1 <0>        -0.0627
     26 C21        -5.2693    4.5423   -4.1811 C.3       1 <0>        -0.1740
     27 O5         -2.8100    5.2355   -5.3856 O.3       1 <0>        -0.2925
     28 H1         -5.8348    6.3252    3.4700 H         1 <0>         0.0837
     29 H2         -5.0252    4.9231    4.2095 H         1 <0>         0.0872
     30 H3         -4.5243    6.5737    4.6486 H         1 <0>         0.0974
     31 H4         -4.3827    3.9574    2.0741 H         1 <0>         0.1556
     32 H5         -1.3029    5.9064   -0.1413 H         1 <0>         0.1374
     33 H6         -1.5207    7.8931    1.2952 H         1 <0>         0.1431
     34 H7         -3.8380    8.7842    2.9759 H         1 <0>         0.2298
     35 H8          0.0259    4.5259    0.5809 H         1 <0>         0.1441
     36 H9          1.9365    3.0301    0.9521 H         1 <0>         0.1401
     37 H10         1.6446    0.5878    0.8567 H         1 <0>         0.1424
     38 H11        -0.5936   -0.3606    0.4024 H         1 <0>         0.1442
     39 H12        -0.6105    4.3444   -1.5477 H         1 <0>         0.1364
     40 H13        -0.6580    5.0608   -3.9018 H         1 <0>         0.1422
     41 H14        -4.8403    3.8008   -1.6198 H         1 <0>         0.1504
     42 H15        -5.4576    3.5807   -4.6586 H         1 <0>         0.0888
     43 H16        -6.0736    4.7632   -3.4794 H         1 <0>         0.0839
     44 H17        -5.2253    5.3228   -4.9407 H         1 <0>         0.0956
     45 H18        -2.7083    4.5122   -6.0194 H         1 <0>         0.2320
@<TRIPOS>BOND
     1    1    2 1
     2    1   28 1
     3    1   29 1
     4    1   30 1
     5    2    7 ar
     6    2    3 ar
     7    3    4 ar
     8    3   31 1
     9    4    5 ar
    10    4    9 1
    11    5    6 ar
    12    5   32 1
    13    6    7 ar
    14    6   33 1
    15    7    8 1
    16    8   34 1
    17    9   19 1
    18    9   10 1
    19    9   20 1
    20   10   15 ar
    21   10   11 ar
    22   11   12 ar
    23   11   35 1
    24   12   13 ar
    25   12   36 1
    26   13   14 ar
    27   13   37 1
    28   14   15 ar
    29   14   38 1
    30   15   16 1
    31   16   17 2
    32   16   18 2
    33   16   19 1
    34   20   25 ar
    35   20   21 ar
    36   21   22 ar
    37   21   39 1
    38   22   23 ar
    39   22   40 1
    40   23   24 ar
    41   23   27 1
    42   24   25 ar
    43   24   26 1
    44   25   41 1
    45   26   42 1
    46   26   43 1
    47   26   44 1
    48   27   45 1
@<TRIPOS>MOLECULE
ZINC03862078
   42    45     0     0     0
SMALL
USER_CHARGES

@<TRIPOS>ATOM
      1 C1         -1.2333    3.9043   -0.0333 C.3       1 <0>        -0.1601
      2 C2         -0.6272    2.5250   -0.0692 C.2       1 <0>        -0.1014
      3 C3          0.7269    2.3714   -0.1016 C.2       1 <0>        -0.0203
      4 C4          1.2762    1.0824   -0.1343 C.2       1 <0>        -0.1658
      5 C5          0.4658    0.0002   -0.1332 C.2       1 <0>        -0.0067
      6 N1         -0.8892    0.1435   -0.1008 N.am      1 <0>        -0.1289
      7 C6         -1.4551    1.3875   -0.0636 C.2       1 <0>         0.2257
      8 N2         -2.7778    1.5506   -0.0266 N.2       1 <0>        -0.2852
      9 C7         -3.6075    0.5153   -0.0194 C.2       1 <0>         0.2614
     10 C8         -3.0785   -0.7950   -0.0518 C.2       1 <0>        -0.3377
     11 C9         -1.6698   -0.9597   -0.1006 C.2       1 <0>         0.3561
     12 O1         -1.1742   -2.0720   -0.1289 O.2       1 <0>        -0.3004
     13 C10        -3.9274   -1.9112   -0.0457 C.2       1 <0>         0.1241
     14 C11        -5.3022   -1.7224   -0.0070 C.2       1 <0>        -0.2898
     15 C12        -5.8339   -0.3511    0.0268 C.cat     1 <0>         0.3310
     16 N3         -4.9650    0.7189    0.0186 N.pl3     1 <0>        -0.1758
     17 C13        -5.4942    2.0846    0.0513 C.3       1 <0>         0.0471
     18 C14        -5.7124    2.5726   -1.3577 C.2       1 <0>        -0.1297
     19 C15        -6.8416    2.4280   -2.0742 C.2       1 <0>        -0.1777
     20 C16        -6.6090    3.0314   -3.3315 C.2       1 <0>        -0.2112
     21 C17        -5.3487    3.5011   -3.3111 C.2       1 <0>        -0.0572
     22 O2         -4.8105    3.2204   -2.1131 O.3       1 <0>        -0.0364
     23 C18        -6.2117   -2.8737    0.0006 C.2       1 <0>         0.3808
     24 O3         -7.4086   -2.7027    0.1399 O.2       1 <0>        -0.3930
     25 N4         -5.7216   -4.1205   -0.1466 N.am      1 <0>        -0.3994
     26 H1         -0.4389    4.6505   -0.0387 H         1 <0>         0.0975
     27 H2         -1.8694    4.0444   -0.9072 H         1 <0>         0.1112
     28 H3         -1.8300    4.0155    0.8720 H         1 <0>         0.1054
     29 H4          1.3723    3.2374   -0.1026 H         1 <0>         0.1742
     30 H5          2.3483    0.9534   -0.1602 H         1 <0>         0.1823
     31 H6          0.8972   -0.9895   -0.1585 H         1 <0>         0.2108
     32 H7         -3.5151   -2.9091   -0.0714 H         1 <0>         0.1805
     33 H8         -7.8143   -0.8350    0.1460 H         1 <0>         0.3248
     34 H9         -6.4417    2.0944    0.5900 H         1 <0>         0.1237
     35 H10        -4.7825    2.7380    0.5560 H         1 <0>         0.1669
     36 H11        -7.7521    1.9458   -1.7503 H         1 <0>         0.1505
     37 H12        -7.3075    3.0982   -4.1525 H         1 <0>         0.1775
     38 H13        -4.8537    4.0169   -4.1206 H         1 <0>         0.2178
     39 H14        -4.7676   -4.2567   -0.2577 H         1 <0>         0.2250
     40 H15        -6.3228   -4.8816   -0.1416 H         1 <0>         0.2569
     41 N5         -7.1362   -0.0779    0.0585 N.pl3     1 <0>        -0.3193
     42 H16        -7.4584    0.8950   -0.0051 H         1 <0>         0.2646
@<TRIPOS>BOND
     1    1    2 1
     2    1   26 1
     3    1   27 1
     4    1   28 1
     5    2    7 1
     6    2    3 2
     7    3    4 1
     8    3   29 1
     9    4    5 2
    10    4   30 1
    11    5    6 1
    12    5   31 1
    13    6   11 am
    14    6    7 1
    15    7    8 2
    16    8    9 1
    17    9   16 1
    18    9   10 2
    19   10   11 1
    20   10   13 1
    21   11   12 2
    22   13   14 2
    23   13   32 1
    24   14   15 1
    25   14   23 1
    26   15   16 1
    27   15   41 2
    28   16   17 1
    29   17   18 1
    30   17   34 1
    31   17   35 1
    32   18   22 1
    33   18   19 2
    34   19   20 1
    35   19   36 1
    36   20   21 2
    37   20   37 1
    38   21   22 1
    39   21   38 1
    40   23   24 2
    41   23   25 am
    42   25   39 1
    43   25   40 1
    44   33   41 1
    45   41   42 1
@<TRIPOS>MOLECULE
ZINC03863213
   42    45     0     0     0
SMALL
USER_CHARGES

@<TRIPOS>ATOM
      1 C1         -2.8468    4.6722    0.1872 C.3       1 <0>        -0.1748
      2 C2         -1.3554    4.8871    0.1608 C.2       1 <0>        -0.1151
      3 C3         -0.8359    6.1887    0.1492 C.2       1 <0>        -0.0107
      4 C4          0.5143    6.3740    0.1192 C.2       1 <0>        -0.1581
      5 C5          1.3684    5.2560    0.1068 C.2       1 <0>         0.2243
      6 N1          2.6872    5.4503    0.0774 N.2       1 <0>        -0.2854
      7 C6          3.5407    4.4347    0.0644 C.2       1 <0>         0.2615
      8 C7          3.0422    3.1121    0.0821 C.2       1 <0>        -0.3380
      9 C8          3.9167    2.0160    0.0695 C.2       1 <0>         0.1241
     10 C9          5.2869    2.2371    0.0389 C.2       1 <0>        -0.2901
     11 C10         5.7869    3.6206    0.0203 C.cat     1 <0>         0.3310
     12 N2          4.8934    4.6699    0.0346 N.pl3     1 <0>        -0.1757
     13 C11         5.3907    6.0478    0.0165 C.3       1 <0>         0.0469
     14 C12         5.5912    6.5280    1.4309 C.2       1 <0>        -0.1295
     15 C13         6.7203    6.4032    2.1513 C.2       1 <0>        -0.1785
     16 C14         6.4681    6.9896    3.4129 C.2       1 <0>        -0.2121
     17 C15         5.1974    7.4301    3.3907 C.2       1 <0>        -0.0566
     18 O1          4.6712    7.1479    2.1878 O.3       1 <0>        -0.0342
     19 C16         6.2230    1.1073    0.0247 C.2       1 <0>         0.3809
     20 O2          7.4162    1.3073   -0.1074 O.2       1 <0>        -0.3930
     21 N3          5.7614   -0.1519    0.1581 N.am      1 <0>        -0.3996
     22 C17         1.6372    2.9141    0.1129 C.2       1 <0>         0.3561
     23 O3          1.1677    1.7905    0.1282 O.2       1 <0>        -0.3013
     24 N4          0.8313    3.9990    0.1246 N.am      1 <0>        -0.1281
     25 C18        -0.5200    3.8241    0.1536 C.2       1 <0>        -0.0089
     26 H1         -3.1890    4.6271    1.2211 H         1 <0>         0.1106
     27 H2         -3.3420    5.4979   -0.3238 H         1 <0>         0.1058
     28 H3         -3.0880    3.7362   -0.3165 H         1 <0>         0.1029
     29 H4         -1.5011    7.0396    0.1589 H         1 <0>         0.1740
     30 H5          0.9258    7.3724    0.1054 H         1 <0>         0.1916
     31 H6          3.5278    1.0086    0.0839 H         1 <0>         0.1802
     32 H7          7.7784    3.1839   -0.0950 H         1 <0>         0.3246
     33 H8          6.3401    6.0844   -0.5177 H         1 <0>         0.1234
     34 H9          4.6662    6.6891   -0.4856 H         1 <0>         0.1681
     35 H10         7.6432    5.9452    1.8274 H         1 <0>         0.1501
     36 H11         7.1613    7.0652    4.2376 H         1 <0>         0.1771
     37 H12         4.6870    7.9270    4.2025 H         1 <0>         0.2177
     38 H13         4.8104   -0.3113    0.2633 H         1 <0>         0.2249
     39 H14         6.3802   -0.8988    0.1487 H         1 <0>         0.2568
     40 H15        -0.9284    2.8244    0.1667 H         1 <0>         0.2113
     41 N5          7.0826    3.9242   -0.0032 N.pl3     1 <0>        -0.3193
     42 H16         7.3818    4.9036    0.0711 H         1 <0>         0.2649
@<TRIPOS>BOND
     1    1    2 1
     2    1   26 1
     3    1   27 1
     4    1   28 1
     5    2   25 2
     6    2    3 1
     7    3    4 2
     8    3   29 1
     9    4    5 1
    10    4   30 1
    11    5   24 1
    12    5    6 2
    13    6    7 1
    14    7   12 1
    15    7    8 2
    16    8    9 1
    17    8   22 1
    18    9   10 2
    19    9   31 1
    20   10   11 1
    21   10   19 1
    22   11   12 1
    23   11   41 2
    24   12   13 1
    25   13   14 1
    26   13   33 1
    27   13   34 1
    28   14   18 1
    29   14   15 2
    30   15   16 1
    31   15   35 1
    32   16   17 2
    33   16   36 1
    34   17   18 1
    35   17   37 1
    36   19   20 2
    37   19   21 am
    38   21   38 1
    39   21   39 1
    40   22   23 2
    41   22   24 am
    42   24   25 1
    43   25   40 1
    44   32   41 1
    45   41   42 1
@<TRIPOS>MOLECULE
ZINC03866803
   43    45     0     0     0
SMALL
USER_CHARGES

@<TRIPOS>ATOM
      1 C1          0.3143   -3.4882   -1.4568 C.3       1 <0>        -0.2308
      2 C2          0.7381   -3.1670   -0.0222 C.3       1 <0>        -0.0217
      3 N1          1.6269   -2.0024   -0.0246 N.pl3     1 <0>        -0.0899
      4 C3          2.9740   -2.0223   -0.0378 C.2       1 <0>        -0.0261
      5 N2          3.4336   -0.7970   -0.0354 N.2       1 <0>        -0.2036
      6 C4          2.4161    0.0679   -0.0206 C.2       1 <0>         0.0992
      7 C5          1.2431   -0.6764   -0.0134 C.2       1 <0>        -0.2484
      8 C6          0.0021   -0.0041    0.0020 C.2       1 <0>         0.3996
      9 O1         -1.0401   -0.6344    0.0082 O.2       1 <0>        -0.3716
     10 N3         -0.0162    1.3451    0.0094 N.am      1 <0>        -0.2760
     11 C7          1.1265    2.0528    0.0023 C.2       1 <0>         0.4232
     12 O2          1.0714    3.2676    0.0094 O.2       1 <0>        -0.3829
     13 N4          2.3307    1.4507   -0.0124 N.am      1 <0>        -0.2271
     14 C8          3.5525    2.2590   -0.0192 C.3       1 <0>         0.0411
     15 C9          3.9585    2.5439   -1.4422 C.ar      1 <0>        -0.1179
     16 C10         4.8096    1.6790   -2.1045 C.ar      1 <0>        -0.1043
     17 C11         5.1781    1.9378   -3.4114 C.ar      1 <0>        -0.1379
     18 C12         4.7039    3.0668   -4.0527 C.ar      1 <0>        -0.1197
     19 C13         3.8569    3.9344   -3.3887 C.ar      1 <0>        -0.1376
     20 C14         3.4842    3.6729   -2.0835 C.ar      1 <0>        -0.1023
     21 C15        -1.3009    2.0492    0.0193 C.3       1 <0>        -0.0229
     22 C16        -1.7347    2.2829    1.4435 C.2       1 <0>         0.2933
     23 O3         -1.0393    1.8991    2.3600 O.2       1 <0>        -0.3357
     24 N5         -2.8955    2.9184    1.6987 N.am      1 <0>        -0.3313
     25 N6         -3.2887    3.1303    2.9896 N.3       1 <0>        -0.2091
     26 H1         -0.3470   -4.3546   -1.4549 H         1 <0>         0.0913
     27 H2         -0.2100   -2.6319   -1.8811 H         1 <0>         0.1021
     28 H3          1.1979   -3.7068   -2.0564 H         1 <0>         0.0791
     29 H4          1.2623   -4.0233    0.4022 H         1 <0>         0.0976
     30 H5         -0.1455   -2.9484    0.5774 H         1 <0>         0.1324
     31 H6          3.5825   -2.9145   -0.0482 H         1 <0>         0.2109
     32 H7          3.3692    3.1990    0.5014 H         1 <0>         0.1265
     33 H8          4.3512    1.7145    0.4844 H         1 <0>         0.1183
     34 H9          5.1837    0.7993   -1.6020 H         1 <0>         0.1437
     35 H10         5.8401    1.2602   -3.9301 H         1 <0>         0.1286
     36 H11         4.9953    3.2713   -5.0723 H         1 <0>         0.1268
     37 H12         3.4866    4.8167   -3.8896 H         1 <0>         0.1297
     38 H13         2.8227    4.3509   -1.5646 H         1 <0>         0.1487
     39 H14        -1.1942    3.0071   -0.4898 H         1 <0>         0.1380
     40 H15        -2.0497    1.4462   -0.4943 H         1 <0>         0.1304
     41 H16        -3.4517    3.2254    0.9656 H         1 <0>         0.2198
     42 H17        -4.1731    3.6149    3.0233 H         1 <0>         0.1547
     43 H18        -3.3326    2.2618    3.5013 H         1 <0>         0.1617
@<TRIPOS>BOND
     1    1    2 1
     2    1   26 1
     3    1   27 1
     4    1   28 1
     5    2    3 1
     6    2   29 1
     7    2   30 1
     8    3    7 1
     9    3    4 1
    10    4    5 2
    11    4   31 1
    12    5    6 1
    13    6   13 1
    14    6    7 2
    15    7    8 1
    16    8    9 2
    17    8   10 am
    18   10   11 am
    19   10   21 1
    20   11   12 2
    21   11   13 am
    22   13   14 1
    23   14   15 1
    24   14   32 1
    25   14   33 1
    26   15   20 ar
    27   15   16 ar
    28   16   17 ar
    29   16   34 1
    30   17   18 ar
    31   17   35 1
    32   18   19 ar
    33   18   36 1
    34   19   20 ar
    35   19   37 1
    36   20   38 1
    37   21   22 1
    38   21   39 1
    39   21   40 1
    40   22   23 2
    41   22   24 am
    42   24   25 1
    43   24   41 1
    44   25   42 1
    45   25   43 1
@<TRIPOS>MOLECULE
ZINC03866803
   44    46     0     0     0
SMALL
USER_CHARGES

@<TRIPOS>ATOM
      1 C1          0.3143   -3.4882   -1.4568 C.3       1 <0>        -0.2335
      2 C2          0.7381   -3.1670   -0.0222 C.3       1 <0>        -0.0365
      3 N1          1.6269   -2.0024   -0.0246 N.pl3     1 <0>        -0.0050
      4 C3          2.9740   -2.0223   -0.0378 C.cat     1 <0>         0.0199
      5 C4          2.4161    0.0679   -0.0206 C.2       1 <0>         0.1345
      6 C5          1.2431   -0.6764   -0.0134 C.2       1 <0>        -0.1805
      7 C6          0.0021   -0.0041    0.0020 C.2       1 <0>         0.3886
      8 O1         -1.0401   -0.6344    0.0082 O.2       1 <0>        -0.3081
      9 N2         -0.0162    1.3451    0.0094 N.am      1 <0>        -0.2653
     10 C7          1.1265    2.0528    0.0023 C.2       1 <0>         0.4216
     11 O2          1.0714    3.2676    0.0094 O.2       1 <0>        -0.3120
     12 N3          2.3307    1.4507   -0.0124 N.am      1 <0>        -0.2319
     13 C8          3.5525    2.2590   -0.0192 C.3       1 <0>         0.0266
     14 C9          3.9585    2.5439   -1.4422 C.ar      1 <0>        -0.1454
     15 C10         4.8096    1.6790   -2.1045 C.ar      1 <0>        -0.1286
     16 C11         5.1781    1.9378   -3.4114 C.ar      1 <0>        -0.1204
     17 C12         4.7039    3.0668   -4.0527 C.ar      1 <0>        -0.0955
     18 C13         3.8569    3.9344   -3.3887 C.ar      1 <0>        -0.1149
     19 C14         3.4842    3.6729   -2.0835 C.ar      1 <0>        -0.0878
     20 C15        -1.3009    2.0492    0.0193 C.3       1 <0>        -0.0308
     21 C16        -1.7347    2.2829    1.4435 C.2       1 <0>         0.2920
     22 O3         -1.0393    1.8991    2.3600 O.2       1 <0>        -0.3483
     23 N4         -2.8955    2.9184    1.6987 N.am      1 <0>        -0.3128
     24 N5         -3.2887    3.1303    2.9896 N.3       1 <0>        -0.2074
     25 H1         -0.3470   -4.3546   -1.4549 H         1 <0>         0.1298
     26 H2         -0.2100   -2.6319   -1.8811 H         1 <0>         0.1104
     27 H3          1.1979   -3.7068   -2.0564 H         1 <0>         0.0869
     28 H4          1.2623   -4.0233    0.4022 H         1 <0>         0.1258
     29 H5         -0.1455   -2.9484    0.5774 H         1 <0>         0.1643
     30 H6          3.5825   -2.9145   -0.0482 H         1 <0>         0.2531
     31 H7          3.3692    3.1990    0.5014 H         1 <0>         0.1625
     32 H8          4.3512    1.7145    0.4844 H         1 <0>         0.0940
     33 H9          5.1837    0.7993   -1.6020 H         1 <0>         0.0946
     34 H10         5.8401    1.2602   -3.9301 H         1 <0>         0.1418
     35 H11         4.9953    3.2713   -5.0723 H         1 <0>         0.1492
     36 H12         3.4866    4.8167   -3.8896 H         1 <0>         0.1512
     37 H13         2.8227    4.3509   -1.5646 H         1 <0>         0.1575
     38 H14        -1.1942    3.0071   -0.4898 H         1 <0>         0.1508
     39 H15        -2.0497    1.4462   -0.4943 H         1 <0>         0.1422
     40 H16        -3.4517    3.2254    0.9656 H         1 <0>         0.2271
     41 H17        -4.1731    3.6149    3.0233 H         1 <0>         0.1699
     42 H18        -3.3326    2.2618    3.5013 H         1 <0>         0.1674
     43 N6          3.4356   -0.7965   -0.0354 N.pl3     1 <0>        -0.1152
     44 H19         4.4295   -0.5387   -0.0437 H         1 <0>         0.3183
@<TRIPOS>BOND
     1    1    2 1
     2    1   25 1
     3    1   26 1
     4    1   27 1
     5    2    3 1
     6    2   28 1
     7    2   29 1
     8    3    6 1
     9    3    4 1
    10    4   30 1
    11    4   43 2
    12    5   12 1
    13    5    6 2
    14    5   43 1
    15    6    7 1
    16    7    8 2
    17    7    9 am
    18    9   10 am
    19    9   20 1
    20   10   11 2
    21   10   12 am
    22   12   13 1
    23   13   14 1
    24   13   31 1
    25   13   32 1
    26   14   19 ar
    27   14   15 ar
    28   15   16 ar
    29   15   33 1
    30   16   17 ar
    31   16   34 1
    32   17   18 ar
    33   17   35 1
    34   18   19 ar
    35   18   36 1
    36   19   37 1
    37   20   21 1
    38   20   38 1
    39   20   39 1
    40   21   22 2
    41   21   23 am
    42   23   24 1
    43   23   40 1
    44   24   41 1
    45   24   42 1
    46   43   44 1
@<TRIPOS>MOLECULE
ZINC03867270
   43    46     0     0     0
SMALL
USER_CHARGES

@<TRIPOS>ATOM
      1 C1          6.8360   -7.9563   -5.5151 C.3       1 <0>        -0.2091
      2 C2          7.5390   -7.2244   -4.3702 C.3       1 <0>        -0.1618
      3 C3          6.6209   -6.1284   -3.8255 C.3       1 <0>        -0.1856
      4 C4          7.3240   -5.3965   -2.6805 C.3       1 <0>        -0.0054
      5 N1          6.4448   -4.3471   -2.1590 N.am      1 <0>        -0.2725
      6 C5          6.4202   -3.0389   -2.6315 C.ar      1 <0>         0.0910
      7 C6          7.1478   -2.4063   -3.6330 C.ar      1 <0>        -0.1649
      8 C7          6.9176   -1.0759   -3.9225 C.ar      1 <0>        -0.0742
      9 C8          5.9730   -0.3525   -3.2138 C.ar      1 <0>        -0.1648
     10 C9          5.2443   -0.9614   -2.2120 C.ar      1 <0>        -0.0541
     11 C10         5.4628   -2.3042   -1.9183 C.ar      1 <0>        -0.1807
     12 C11         4.8690   -3.2344   -0.9334 C.2       1 <0>         0.0022
     13 N2          3.9319   -2.9746   -0.0522 N.2       1 <0>        -0.0610
     14 C12         3.3043   -1.7712   -0.0638 C.ar      1 <0>        -0.0106
     15 C13         3.4025   -0.9161    1.0448 C.ar      1 <0>        -0.1104
     16 C14         2.7718    0.2946    1.0371 C.ar      1 <0>        -0.1164
     17 C15         2.0282    0.6897   -0.0699 C.ar      1 <0>        -0.0075
     18 C16         1.9217   -0.1534   -1.1827 C.ar      1 <0>         0.0051
     19 C17         2.5565   -1.3802   -1.1825 C.ar      1 <0>        -0.1467
     20 N3          1.1250    0.5098   -2.1140 N.am      1 <0>        -0.2953
     21 H1          0.8728    0.1735   -2.9882 H         1 <0>         0.2704
     22 C18         0.7655    1.6976   -1.5918 C.2       1 <0>         0.3890
     23 O1          0.0708    2.5262   -2.1497 O.2       1 <0>        -0.3795
     24 N4          1.2951    1.8325   -0.3618 N.am      1 <0>        -0.2927
     25 H2          1.1839    2.5990    0.2222 H         1 <0>         0.2694
     26 C19         5.5594   -4.5266   -1.1639 C.2       1 <0>         0.3549
     27 O2          5.3601   -5.5631   -0.5604 O.2       1 <0>        -0.2876
     28 H3          5.9132   -8.4050   -5.1472 H         1 <0>         0.0779
     29 H4          6.6037   -7.2483   -6.3106 H         1 <0>         0.0733
     30 H5          7.4901   -8.7371   -5.9032 H         1 <0>         0.0758
     31 H6          8.4618   -6.7757   -4.7381 H         1 <0>         0.0775
     32 H7          7.7713   -7.9324   -3.5747 H         1 <0>         0.0856
     33 H8          5.6982   -6.5771   -3.4575 H         1 <0>         0.1015
     34 H9          6.3886   -5.4204   -4.6210 H         1 <0>         0.0878
     35 H10         8.2467   -4.9478   -3.0485 H         1 <0>         0.0948
     36 H11         7.5563   -6.1045   -1.8850 H         1 <0>         0.1162
     37 H12         7.8858   -2.9599   -4.1945 H         1 <0>         0.1367
     38 H13         7.4844   -0.5930   -4.7048 H         1 <0>         0.1373
     39 H14         5.8066    0.6892   -3.4450 H         1 <0>         0.1395
     40 H15         4.5078   -0.3981   -1.6582 H         1 <0>         0.1498
     41 H16         3.9788   -1.2172    1.9072 H         1 <0>         0.1542
     42 H17         2.8509    0.9481    1.8934 H         1 <0>         0.1412
     43 H18         2.4766   -2.0337   -2.0386 H         1 <0>         0.1497
@<TRIPOS>BOND
     1    1    2 1
     2    1   28 1
     3    1   29 1
     4    1   30 1
     5    2    3 1
     6    2   31 1
     7    2   32 1
     8    3    4 1
     9    3   33 1
    10    3   34 1
    11    4    5 1
    12    4   35 1
    13    4   36 1
    14    5   26 am
    15    5    6 1
    16    6   11 ar
    17    6    7 ar
    18    7    8 ar
    19    7   37 1
    20    8    9 ar
    21    8   38 1
    22    9   10 ar
    23    9   39 1
    24   10   11 ar
    25   10   40 1
    26   11   12 1
    27   12   13 2
    28   12   26 1
    29   13   14 1
    30   14   19 ar
    31   14   15 ar
    32   15   16 ar
    33   15   41 1
    34   16   17 ar
    35   16   42 1
    36   17   24 1
    37   17   18 ar
    38   18   19 ar
    39   18   20 1
    40   19   43 1
    41   20   21 1
    42   20   22 am
    43   22   23 2
    44   22   24 am
    45   24   25 1
    46   26   27 2
@<TRIPOS>MOLECULE
ZINC03867282
   46    49     0     0     0
SMALL
USER_CHARGES

@<TRIPOS>ATOM
      1 C1          7.7645   -8.2843   -3.2901 C.3       1 <0>        -0.2106
      2 C2          7.5390   -7.2244   -4.3702 C.3       1 <0>        -0.1152
      3 C3          6.8886   -7.8732   -5.5936 C.3       1 <0>        -0.2052
      4 C4          6.6209   -6.1284   -3.8255 C.3       1 <0>        -0.1810
      5 C5          7.3240   -5.3965   -2.6805 C.3       1 <0>        -0.0073
      6 N1          6.4448   -4.3471   -2.1590 N.am      1 <0>        -0.2724
      7 C6          6.4202   -3.0389   -2.6315 C.ar      1 <0>         0.0910
      8 C7          7.1478   -2.4063   -3.6330 C.ar      1 <0>        -0.1650
      9 C8          6.9176   -1.0759   -3.9225 C.ar      1 <0>        -0.0742
     10 C9          5.9730   -0.3525   -3.2138 C.ar      1 <0>        -0.1650
     11 C10         5.2443   -0.9614   -2.2120 C.ar      1 <0>        -0.0541
     12 C11         5.4628   -2.3042   -1.9183 C.ar      1 <0>        -0.1809
     13 C12         4.8690   -3.2344   -0.9334 C.2       1 <0>         0.0023
     14 N2          3.9319   -2.9746   -0.0522 N.2       1 <0>        -0.0612
     15 C13         3.3043   -1.7712   -0.0638 C.ar      1 <0>        -0.0105
     16 C14         3.4025   -0.9161    1.0448 C.ar      1 <0>        -0.1105
     17 C15         2.7718    0.2946    1.0371 C.ar      1 <0>        -0.1164
     18 C16         2.0282    0.6897   -0.0699 C.ar      1 <0>        -0.0075
     19 C17         1.9217   -0.1534   -1.1827 C.ar      1 <0>         0.0051
     20 C18         2.5565   -1.3802   -1.1825 C.ar      1 <0>        -0.1467
     21 N3          1.1250    0.5098   -2.1140 N.am      1 <0>        -0.2953
     22 H1          0.8728    0.1735   -2.9882 H         1 <0>         0.2704
     23 C19         0.7655    1.6976   -1.5918 C.2       1 <0>         0.3890
     24 O1          0.0708    2.5262   -2.1497 O.2       1 <0>        -0.3796
     25 N4          1.2951    1.8325   -0.3618 N.am      1 <0>        -0.2927
     26 H2          1.1839    2.5990    0.2222 H         1 <0>         0.2694
     27 C20         5.5594   -4.5266   -1.1639 C.2       1 <0>         0.3548
     28 O2          5.3601   -5.5631   -0.5604 O.2       1 <0>        -0.2880
     29 H3          8.4186   -9.0651   -3.6782 H         1 <0>         0.0760
     30 H4          8.2279   -7.8221   -2.4185 H         1 <0>         0.0730
     31 H5          6.8075   -8.7209   -3.0042 H         1 <0>         0.0830
     32 H6          8.4960   -6.7878   -4.6562 H         1 <0>         0.0856
     33 H7          6.7280   -7.1181   -6.3631 H         1 <0>         0.0727
     34 H8          7.5427   -8.6540   -5.9817 H         1 <0>         0.0767
     35 H9          5.9316   -8.3098   -5.3077 H         1 <0>         0.0784
     36 H10         5.6982   -6.5771   -3.4575 H         1 <0>         0.1022
     37 H11         6.3886   -5.4204   -4.6210 H         1 <0>         0.0875
     38 H12         8.2467   -4.9478   -3.0485 H         1 <0>         0.0948
     39 H13         7.5563   -6.1045   -1.8850 H         1 <0>         0.1191
     40 H14         7.8858   -2.9599   -4.1945 H         1 <0>         0.1368
     41 H15         7.4844   -0.5930   -4.7048 H         1 <0>         0.1373
     42 H16         5.8066    0.6892   -3.4450 H         1 <0>         0.1394
     43 H17         4.5078   -0.3981   -1.6582 H         1 <0>         0.1498
     44 H18         3.9788   -1.2172    1.9072 H         1 <0>         0.1541
     45 H19         2.8509    0.9481    1.8934 H         1 <0>         0.1412
     46 H20         2.4766   -2.0337   -2.0386 H         1 <0>         0.1497
@<TRIPOS>BOND
     1    1    2 1
     2    1   29 1
     3    1   30 1
     4    1   31 1
     5    2    3 1
     6    2    4 1
     7    2   32 1
     8    3   33 1
     9    3   34 1
    10    3   35 1
    11    4    5 1
    12    4   36 1
    13    4   37 1
    14    5    6 1
    15    5   38 1
    16    5   39 1
    17    6   27 am
    18    6    7 1
    19    7   12 ar
    20    7    8 ar
    21    8    9 ar
    22    8   40 1
    23    9   10 ar
    24    9   41 1
    25   10   11 ar
    26   10   42 1
    27   11   12 ar
    28   11   43 1
    29   12   13 1
    30   13   14 2
    31   13   27 1
    32   14   15 1
    33   15   20 ar
    34   15   16 ar
    35   16   17 ar
    36   16   44 1
    37   17   18 ar
    38   17   45 1
    39   18   25 1
    40   18   19 ar
    41   19   20 ar
    42   19   21 1
    43   20   46 1
    44   21   22 1
    45   21   23 am
    46   23   24 2
    47   23   25 am
    48   25   26 1
    49   27   28 2
@<TRIPOS>MOLECULE
ZINC03867507
   40    42     0     0     0
SMALL
USER_CHARGES

@<TRIPOS>ATOM
      1 C1         -7.4691    3.0982   -0.2575 C.ar      1 <0>        -0.0949
      2 C2         -7.6697    4.4609   -0.2474 C.ar      1 <0>        -0.1254
      3 C3         -6.6544    5.3145    0.1634 C.ar      1 <0>         0.0245
      4 C4         -5.4237    4.7944    0.5693 C.ar      1 <0>        -0.0051
      5 C5         -5.2165    3.4298    0.5676 C.ar      1 <0>        -0.0416
      6 C6         -6.2384    2.5696    0.1478 C.ar      1 <0>        -0.0762
      7 C7         -6.0213    1.1162    0.1386 C.2       1 <0>        -0.0074
      8 C8         -4.8659    0.6088   -0.3437 C.2       1 <0>        -0.2168
      9 C9         -3.9701    1.4422   -1.0601 C.2       1 <0>         0.3412
     10 O1         -4.2953    2.5783   -1.3488 O.2       1 <0>        -0.3562
     11 O2         -2.7569    0.9752   -1.4216 O.3       1 <0>        -0.2339
     12 C10        -1.9057    1.8693   -2.1414 C.3       1 <0>        -0.0200
     13 C11        -0.6039    1.1787   -2.4570 C.2       1 <0>         0.2886
     14 O3         -0.4230    0.0336   -2.1007 O.2       1 <0>        -0.3180
     15 N1          0.3570    1.8317   -3.1401 N.am      1 <0>        -0.2625
     16 C12         1.5525    1.1944   -3.4355 C.2       1 <0>        -0.0854
     17 C13         2.6492    1.6941   -4.1277 C.2       1 <0>        -0.2743
     18 C14         3.7753    0.8054   -4.2887 C.2       1 <0>        -0.1279
     19 C15         3.6629   -0.4292   -3.7665 C.2       1 <0>        -0.3791
     20 S1          2.0380   -0.4195   -3.0379 S.3       1 <0>         0.5068
     21 C16         2.6633    3.0584   -4.6647 C.2       1 <0>         0.3843
     22 O4          1.6985    3.7838   -4.5087 O.2       1 <0>        -0.4141
     23 N2          3.7447    3.5093   -5.3309 N.am      1 <0>        -0.4223
     24 O5         -4.6076    5.8313    0.9202 O.3       1 <0>        -0.2068
     25 C17        -5.4819    6.9585    1.1157 C.3       1 <0>         0.1067
     26 O6         -6.6048    6.6740    0.2610 O.3       1 <0>        -0.2069
     27 H1         -8.2612    2.4379   -0.5785 H         1 <0>         0.1382
     28 H2         -8.6202    4.8671   -0.5606 H         1 <0>         0.1437
     29 H3         -4.2664    3.0265    0.8852 H         1 <0>         0.1421
     30 H4         -6.7855    0.4537    0.5175 H         1 <0>         0.1456
     31 H5         -4.6245   -0.4316   -0.1836 H         1 <0>         0.1545
     32 H6         -1.7102    2.7529   -1.5339 H         1 <0>         0.1148
     33 H7         -2.3934    2.1671   -3.0696 H         1 <0>         0.1157
     34 H8          0.2123    2.7475   -3.4251 H         1 <0>         0.2776
     35 H9          4.6683    1.1169   -4.8101 H         1 <0>         0.1376
     36 H10         4.3844   -1.2326   -3.7844 H         1 <0>         0.1878
     37 H11         4.5136    2.9312   -5.4552 H         1 <0>         0.2181
     38 H12         3.7540    4.4118   -5.6861 H         1 <0>         0.2296
     39 H13        -5.7991    7.0209    2.1566 H         1 <0>         0.0864
     40 H14        -4.9908    7.8817    0.8081 H         1 <0>         0.1307
@<TRIPOS>BOND
     1    1    6 ar
     2    1    2 ar
     3    1   27 1
     4    2    3 ar
     5    2   28 1
     6    3   26 1
     7    3    4 ar
     8    4    5 ar
     9    4   24 1
    10    5    6 ar
    11    5   29 1
    12    6    7 1
    13    7    8 2
    14    7   30 1
    15    8    9 1
    16    8   31 1
    17    9   10 2
    18    9   11 1
    19   11   12 1
    20   12   13 1
    21   12   32 1
    22   12   33 1
    23   13   14 2
    24   13   15 am
    25   15   16 1
    26   15   34 1
    27   16   20 1
    28   16   17 2
    29   17   18 1
    30   17   21 1
    31   18   19 2
    32   18   35 1
    33   19   20 1
    34   19   36 1
    35   21   22 2
    36   21   23 am
    37   23   37 1
    38   23   38 1
    39   24   25 1
    40   25   26 1
    41   25   39 1
    42   25   40 1
@<TRIPOS>MOLECULE
ZINC03867518
   40    41     0     0     0
SMALL
USER_CHARGES

@<TRIPOS>ATOM
      1 C1         -0.0014    3.6502   -0.5555 C.3       1 <0>        -0.1379
      2 C2         -0.6597    3.4766    0.7890 C.2       1 <0>        -0.0121
      3 C3         -0.0150    3.4058    1.9750 C.2       1 <0>        -0.2348
      4 C4         -0.9915    3.2450    2.9693 C.2       1 <0>        -0.1569
      5 C5         -2.2105    3.2256    2.3228 C.2       1 <0>        -0.0608
      6 O1         -1.9788    3.3734    1.0015 O.3       1 <0>        -0.0155
      7 C6         -3.4778    3.0823    2.9363 C.2       1 <0>         0.0192
      8 C7         -4.5871    2.9154    2.1719 C.2       1 <0>        -0.2274
      9 C8         -4.4728    2.3852    0.8672 C.2       1 <0>         0.3464
     10 O2         -3.4469    1.8268    0.5250 O.2       1 <0>        -0.3572
     11 O3         -5.5014    2.4980    0.0002 O.3       1 <0>        -0.2332
     12 C9         -5.3166    1.9391   -1.3019 C.3       1 <0>        -0.0249
     13 C10        -6.5603    2.1590   -2.1241 C.2       1 <0>         0.2967
     14 O4         -7.5113    2.7373   -1.6424 O.2       1 <0>        -0.3204
     15 N1         -6.6158    1.7129   -3.3946 N.am      1 <0>        -0.3270
     16 C11        -7.8045    1.8115   -4.1169 C.ar      1 <0>         0.0902
     17 C12        -9.0263    1.7546   -3.4538 C.ar      1 <0>        -0.1429
     18 C13       -10.2017    1.8565   -4.1634 C.ar      1 <0>        -0.0847
     19 C14       -10.1668    2.0065   -5.5524 C.ar      1 <0>        -0.1511
     20 C15        -8.9379    2.0579   -6.2158 C.ar      1 <0>        -0.0453
     21 C16        -7.7661    1.9608   -5.4997 C.ar      1 <0>        -0.1778
     22 C17       -11.4250    2.1109   -6.3169 C.2       1 <0>         0.3522
     23 O5        -11.3930    2.2418   -7.5252 O.2       1 <0>        -0.3728
     24 N2        -12.6093    2.0611   -5.6755 N.am      1 <0>        -0.4286
     25 H1          0.2259    2.6714   -0.9778 H         1 <0>         0.1000
     26 H2          0.9214    4.2183   -0.4375 H         1 <0>         0.0972
     27 H3         -0.6753    4.1866   -1.2235 H         1 <0>         0.0932
     28 H4          1.0525    3.4628    2.1285 H         1 <0>         0.1573
     29 H5         -0.8224    3.1539    4.0320 H         1 <0>         0.1566
     30 H6         -3.5623    3.1058    4.0128 H         1 <0>         0.1579
     31 H7         -5.5571    3.1879    2.5609 H         1 <0>         0.1568
     32 H8         -4.4695    2.4229   -1.7881 H         1 <0>         0.1066
     33 H9         -5.1233    0.8700   -1.2143 H         1 <0>         0.1072
     34 H10        -5.8288    1.3232   -3.8067 H         1 <0>         0.2352
     35 H11        -9.0527    1.6346   -2.3809 H         1 <0>         0.1675
     36 H12       -11.1497    1.8164   -3.6476 H         1 <0>         0.1292
     37 H13        -8.9074    2.1742   -7.2891 H         1 <0>         0.1597
     38 H14        -6.8161    2.0008   -6.0117 H         1 <0>         0.1351
     39 H15       -12.6348    1.9567   -4.7115 H         1 <0>         0.2163
     40 H16       -13.4362    2.1297   -6.1779 H         1 <0>         0.2309
@<TRIPOS>BOND
     1    1    2 1
     2    1   25 1
     3    1   26 1
     4    1   27 1
     5    2    6 1
     6    2    3 2
     7    3    4 1
     8    3   28 1
     9    4    5 2
    10    4   29 1
    11    5    6 1
    12    5    7 1
    13    7    8 2
    14    7   30 1
    15    8    9 1
    16    8   31 1
    17    9   10 2
    18    9   11 1
    19   11   12 1
    20   12   13 1
    21   12   32 1
    22   12   33 1
    23   13   14 2
    24   13   15 am
    25   15   16 1
    26   15   34 1
    27   16   21 ar
    28   16   17 ar
    29   17   18 ar
    30   17   35 1
    31   18   19 ar
    32   18   36 1
    33   19   20 ar
    34   19   22 1
    35   20   21 ar
    36   20   37 1
    37   21   38 1
    38   22   23 2
    39   22   24 am
    40   24   39 1
    41   24   40 1
@<TRIPOS>MOLECULE
ZINC03867595
   45    48     0     0     0
SMALL
USER_CHARGES

@<TRIPOS>ATOM
      1 C1         -1.2138    1.7520    0.0173 C.ar      1 <0>        -0.0805
      2 C2         -1.2398    3.1395    0.0306 C.ar      1 <0>        -0.1346
      3 C3         -0.0782    3.8582    0.0230 C.ar      1 <0>        -0.0560
      4 C4          1.1513    3.1943    0.0077 C.ar      1 <0>        -0.0623
      5 C5          1.1783    1.7895    0.0004 C.ar      1 <0>        -0.0256
      6 C6         -0.0126    1.0758    0.0080 C.ar      1 <0>        -0.1361
      7 N1          2.5122    1.4340   -0.0138 N.pl3     1 <0>        -0.2125
      8 H1          2.8775    0.5031   -0.0219 H         1 <0>         0.2570
      9 C7          3.2376    2.5848   -0.0148 C.2       1 <0>        -0.0650
     10 N2          2.4425    3.6146   -0.0022 N.2       1 <0>        -0.1298
     11 C8          4.7428    2.6565   -0.0290 C.3       1 <0>         0.0695
     12 N3          5.2116    2.8071   -1.4088 N.pl3     1 <0>        -0.3127
     13 C9          6.5731    2.8955   -1.6745 C.ar      1 <0>         0.2463
     14 C10         7.4854    2.8403   -0.6254 C.ar      1 <0>        -0.2318
     15 C11         8.8370    2.9294   -0.9041 C.ar      1 <0>         0.1047
     16 C12         9.2329    3.0714   -2.2277 C.ar      1 <0>        -0.8115
     17 C13         8.2736    3.1191   -3.2189 C.ar      1 <0>         0.1301
     18 S1         10.9425    3.1890   -2.6375 S.o2      1 <0>         2.7627
     19 O1         11.0154    3.8628   -3.8865 O.2       1 <0>        -0.8818
     20 O2         11.6070    3.6650   -1.4752 O.2       1 <0>        -0.8680
     21 N4         11.4906    1.6482   -2.8984 N.pl3     1 <0>        -0.8460
     22 C14        12.0638    0.7584   -1.8780 C.3       1 <0>        -0.0044
     23 C15        12.4532   -0.5574   -2.5839 C.3       1 <0>        -0.1691
     24 C16        12.6067   -0.1224   -4.0653 C.3       1 <0>        -0.1631
     25 C17        11.4903    0.9440   -4.1935 C.3       1 <0>        -0.0128
     26 H2         -2.1410    1.1982    0.0190 H         1 <0>         0.1492
     27 H3         -2.1880    3.6563    0.0424 H         1 <0>         0.1501
     28 H4         -0.1099    4.9378    0.0290 H         1 <0>         0.1526
     29 H5          0.0021   -0.0041    0.0020 H         1 <0>         0.1378
     30 H6          5.0714    3.5115    0.5618 H         1 <0>         0.1415
     31 H7          5.1542    1.7412    0.3966 H         1 <0>         0.1072
     32 H8          4.5718    2.8452   -2.1369 H         1 <0>         0.2610
     33 H9          7.1426    2.7296    0.3928 H         1 <0>         0.1939
     34 H10         9.5683    2.8899   -0.1103 H         1 <0>         0.1994
     35 H11         8.5770    3.2294   -4.2495 H         1 <0>         0.2107
     36 H12        12.9472    1.2204   -1.4373 H         1 <0>         0.1112
     37 H13        11.3233    0.5565   -1.1040 H         1 <0>         0.0678
     38 H14        11.6646   -1.3028   -2.4806 H         1 <0>         0.0932
     39 H15        13.3975   -0.9369   -2.1936 H         1 <0>         0.1138
     40 H16        12.4262   -0.9599   -4.7392 H         1 <0>         0.1079
     41 H17        13.5884    0.3163   -4.2439 H         1 <0>         0.1120
     42 H18        10.5262    0.4651   -4.3648 H         1 <0>         0.0678
     43 H19        11.7194    1.6376   -5.0026 H         1 <0>         0.1130
     44 N5          6.9373    3.0285   -2.9825 N.ar      1 <0>        -0.1646
     45 H20         6.2459    3.0583   -3.7410 H         1 <0>         0.3078
@<TRIPOS>BOND
     1    1    6 ar
     2    1    2 ar
     3    1   26 1
     4    2    3 ar
     5    2   27 1
     6    3    4 ar
     7    3   28 1
     8    4   10 1
     9    4    5 ar
    10    5    6 ar
    11    5    7 1
    12    6   29 1
    13    7    8 1
    14    7    9 1
    15    9   10 2
    16    9   11 1
    17   11   12 1
    18   11   30 1
    19   11   31 1
    20   12   13 1
    21   12   32 1
    22   13   14 ar
    23   13   44 ar
    24   14   15 ar
    25   14   33 1
    26   15   16 ar
    27   15   34 1
    28   16   17 ar
    29   16   18 1
    30   17   35 1
    31   17   44 ar
    32   18   19 2
    33   18   20 2
    34   18   21 1
    35   21   25 1
    36   21   22 1
    37   22   23 1
    38   22   36 1
    39   22   37 1
    40   23   24 1
    41   23   38 1
    42   23   39 1
    43   24   25 1
    44   24   40 1
    45   24   41 1
    46   25   42 1
    47   25   43 1
    48   44   45 1
@<TRIPOS>MOLECULE
ZINC03867595
   46    49     0     0     0
SMALL
USER_CHARGES

@<TRIPOS>ATOM
      1 C1         -1.2138    1.7520    0.0173 C.ar      1 <0>        -0.0454
      2 C2         -1.2398    3.1395    0.0306 C.ar      1 <0>        -0.0628
      3 C3         -0.0782    3.8582    0.0230 C.ar      1 <0>        -0.0878
      4 C4          1.1513    3.1943    0.0077 C.ar      1 <0>        -0.0494
      5 C5          1.1783    1.7895    0.0004 C.ar      1 <0>        -0.0081
      6 C6         -0.0126    1.0758    0.0080 C.ar      1 <0>        -0.1021
      7 N1          2.5122    1.4340   -0.0138 N.pl3     1 <0>        -0.1212
      8 H1          2.8775    0.5031   -0.0219 H         1 <0>         0.3131
      9 C7          3.2376    2.5848   -0.0148 C.cat     1 <0>         0.0489
     10 C8          4.7428    2.6565   -0.0290 C.3       1 <0>         0.0473
     11 N2          5.2116    2.8071   -1.4088 N.pl3     1 <0>        -0.3686
     12 C9          6.5731    2.8955   -1.6745 C.ar      1 <0>         0.2410
     13 C10         7.4854    2.8403   -0.6254 C.ar      1 <0>        -0.2324
     14 C11         8.8370    2.9294   -0.9041 C.ar      1 <0>         0.1272
     15 C12         9.2329    3.0714   -2.2277 C.ar      1 <0>        -0.7850
     16 C13         8.2736    3.1191   -3.2189 C.ar      1 <0>         0.1371
     17 S1         10.9425    3.1890   -2.6375 S.o2      1 <0>         2.7420
     18 O1         11.0154    3.8628   -3.8865 O.2       1 <0>        -0.8654
     19 O2         11.6070    3.6650   -1.4752 O.2       1 <0>        -0.8533
     20 N3         11.4906    1.6482   -2.8984 N.pl3     1 <0>        -0.8409
     21 C14        12.0638    0.7584   -1.8780 C.3       1 <0>        -0.0072
     22 C15        12.4532   -0.5574   -2.5839 C.3       1 <0>        -0.1683
     23 C16        12.6067   -0.1224   -4.0653 C.3       1 <0>        -0.1605
     24 C17        11.4903    0.9440   -4.1935 C.3       1 <0>        -0.0162
     25 H2         -2.1410    1.1982    0.0190 H         1 <0>         0.1884
     26 H3         -2.1880    3.6563    0.0424 H         1 <0>         0.1882
     27 H4         -0.1099    4.9378    0.0290 H         1 <0>         0.1727
     28 H5          0.0021   -0.0041    0.0020 H         1 <0>         0.1752
     29 H6          5.0714    3.5115    0.5618 H         1 <0>         0.1469
     30 H7          5.1542    1.7412    0.3966 H         1 <0>         0.1453
     31 H8          4.5718    2.8452   -2.1369 H         1 <0>         0.2571
     32 H9          7.1426    2.7296    0.3928 H         1 <0>         0.1878
     33 H10         9.5683    2.8899   -0.1103 H         1 <0>         0.2134
     34 H11         8.5770    3.2294   -4.2495 H         1 <0>         0.2265
     35 H12        12.9472    1.2204   -1.4373 H         1 <0>         0.1182
     36 H13        11.3233    0.5565   -1.1040 H         1 <0>         0.0623
     37 H14        11.6646   -1.3028   -2.4806 H         1 <0>         0.0927
     38 H15        13.3975   -0.9369   -2.1936 H         1 <0>         0.1222
     39 H16        12.4262   -0.9599   -4.7392 H         1 <0>         0.1142
     40 H17        13.5884    0.3163   -4.2439 H         1 <0>         0.1188
     41 H18        10.5262    0.4651   -4.3648 H         1 <0>         0.0645
     42 H19        11.7194    1.6376   -5.0026 H         1 <0>         0.1175
     43 N4          6.9373    3.0285   -2.9825 N.ar      1 <0>        -0.1477
     44 H20         6.2459    3.0583   -3.7410 H         1 <0>         0.3118
     45 N5          2.4428    3.6156   -0.0022 N.pl3     1 <0>        -0.0769
     46 H21         2.7456    4.5967   -0.0001 H         1 <0>         0.3191
@<TRIPOS>BOND
     1    1    6 ar
     2    1    2 ar
     3    1   25 1
     4    2    3 ar
     5    2   26 1
     6    3    4 ar
     7    3   27 1
     8    4    5 ar
     9    4   45 1
    10    5    6 ar
    11    5    7 1
    12    6   28 1
    13    7    8 1
    14    7    9 1
    15    9   10 1
    16    9   45 2
    17   10   11 1
    18   10   29 1
    19   10   30 1
    20   11   12 1
    21   11   31 1
    22   12   13 ar
    23   12   43 ar
    24   13   14 ar
    25   13   32 1
    26   14   15 ar
    27   14   33 1
    28   15   16 ar
    29   15   17 1
    30   16   34 1
    31   16   43 ar
    32   17   18 2
    33   17   19 2
    34   17   20 1
    35   20   24 1
    36   20   21 1
    37   21   22 1
    38   21   35 1
    39   21   36 1
    40   22   23 1
    41   22   37 1
    42   22   38 1
    43   23   24 1
    44   23   39 1
    45   23   40 1
    46   24   41 1
    47   24   42 1
    48   43   44 1
    49   45   46 1
@<TRIPOS>MOLECULE
ZINC03867603
   43    45     0     0     0
SMALL
USER_CHARGES

@<TRIPOS>ATOM
      1 C1         -3.0129   -0.7543    4.2408 C.3       1 <0>        -0.2925
      2 S1         -2.6958    0.9567    3.7284 S.3       1 <0>        -0.0054
      3 C2         -2.1034    0.8008    2.0209 C.3       1 <0>        -0.2419
      4 C3         -1.7944    2.1902    1.4595 C.3       1 <0>        -0.1554
      5 C4         -1.2947    2.0587    0.0194 C.3       1 <0>         0.1189
      6 H1         -2.0256    1.5046   -0.5696 H         1 <0>         0.1515
      7 C5         -1.1073    3.4310   -0.5745 C.2       1 <0>         0.0005
      8 N1          0.0462    3.8878   -1.1326 N.pl3     1 <0>        -0.2246
      9 H2          0.9040    3.3812   -1.2190 H         1 <0>         0.2453
     10 C6         -0.1871    5.1804   -1.5576 C.ar      1 <0>        -0.0450
     11 C7          0.5870    6.1456   -2.1875 C.ar      1 <0>        -0.1305
     12 C8          0.0377    7.3747   -2.4840 C.ar      1 <0>        -0.1070
     13 C9         -1.2819    7.6528   -2.1565 C.ar      1 <0>        -0.1438
     14 C10        -2.0583    6.7155   -1.5362 C.ar      1 <0>        -0.0646
     15 C11        -1.5230    5.4625   -1.2263 C.ar      1 <0>        -0.0448
     16 N2         -2.0268    4.3497   -0.6333 N.2       1 <0>        -0.1587
     17 N3         -0.0162    1.3436    0.0094 N.am      1 <0>        -0.3972
     18 C12         0.0021   -0.0041    0.0020 C.2       1 <0>         0.3570
     19 O1         -1.0425   -0.6263    0.0086 O.2       1 <0>        -0.3476
     20 C13         1.2901   -0.7246   -0.0142 C.2       1 <0>        -0.0101
     21 C14         1.3009   -2.0542   -0.0214 C.2       1 <0>        -0.1845
     22 C15         2.5789   -2.8402   -0.0319 C.3       1 <0>        -0.1365
     23 C16         3.7445   -1.9821   -0.4289 C.2       1 <0>         0.3104
     24 O2          4.7748   -2.5134   -0.7854 O.2       1 <0>        -0.3582
     25 N4          3.6763   -0.6405   -0.3991 N.am      1 <0>        -0.2665
     26 N5          2.4875   -0.0024   -0.0275 N.pl3     1 <0>        -0.2977
     27 H3         -3.7624   -1.1970    3.5848 H         1 <0>         0.0935
     28 H4         -2.0893   -1.3297    4.1774 H         1 <0>         0.0899
     29 H5         -3.3775   -0.7644    5.2679 H         1 <0>         0.1151
     30 H6         -2.8720    0.3255    1.4116 H         1 <0>         0.1154
     31 H7         -1.1989    0.1928    2.0042 H         1 <0>         0.1016
     32 H8         -1.0257    2.6656    2.0688 H         1 <0>         0.0977
     33 H9         -2.6989    2.7982    1.4762 H         1 <0>         0.1306
     34 H10         1.6145    5.9344   -2.4443 H         1 <0>         0.1263
     35 H11         0.6385    8.1265   -2.9742 H         1 <0>         0.1349
     36 H12        -1.6993    8.6200   -2.3947 H         1 <0>         0.1360
     37 H13        -3.0840    6.9427   -1.2855 H         1 <0>         0.1452
     38 H14         0.8172    1.8399    0.0041 H         1 <0>         0.2141
     39 H15         0.3603   -2.5849   -0.0193 H         1 <0>         0.1675
     40 H16         2.7569   -3.2452    0.9643 H         1 <0>         0.1266
     41 H17         2.4856   -3.6635   -0.7401 H         1 <0>         0.1298
     42 H18         4.4532   -0.1118   -0.6395 H         1 <0>         0.2586
     43 H19         2.4955    0.9348    0.2225 H         1 <0>         0.2463
@<TRIPOS>BOND
     1    1    2 1
     2    1   27 1
     3    1   28 1
     4    1   29 1
     5    2    3 1
     6    3    4 1
     7    3   30 1
     8    3   31 1
     9    4    5 1
    10    4   32 1
    11    4   33 1
    12    5    6 1
    13    5    7 1
    14    5   17 1
    15    7   16 2
    16    7    8 1
    17    8    9 1
    18    8   10 1
    19   10   15 ar
    20   10   11 ar
    21   11   12 ar
    22   11   34 1
    23   12   13 ar
    24   12   35 1
    25   13   14 ar
    26   13   36 1
    27   14   15 ar
    28   14   37 1
    29   15   16 1
    30   17   18 am
    31   17   38 1
    32   18   19 2
    33   18   20 1
    34   20   26 1
    35   20   21 2
    36   21   22 1
    37   21   39 1
    38   22   23 1
    39   22   40 1
    40   22   41 1
    41   23   24 2
    42   23   25 am
    43   25   26 1
    44   25   42 1
    45   26   43 1
@<TRIPOS>MOLECULE
ZINC03867603
   44    46     0     0     0
SMALL
USER_CHARGES

@<TRIPOS>ATOM
      1 C1         -3.0129   -0.7543    4.2408 C.3       1 <0>        -0.2867
      2 S1         -2.6958    0.9567    3.7284 S.3       1 <0>         0.0126
      3 C2         -2.1034    0.8008    2.0209 C.3       1 <0>        -0.2511
      4 C3         -1.7944    2.1902    1.4595 C.3       1 <0>        -0.1616
      5 C4         -1.2947    2.0587    0.0194 C.3       1 <0>         0.0808
      6 H1         -2.0256    1.5046   -0.5696 H         1 <0>         0.1726
      7 C5         -1.1073    3.4310   -0.5745 C.cat     1 <0>         0.1202
      8 N1          0.0462    3.8878   -1.1326 N.pl3     1 <0>        -0.1517
      9 H2          0.9040    3.3812   -1.2190 H         1 <0>         0.3027
     10 C6         -0.1871    5.1804   -1.5576 C.ar      1 <0>        -0.0143
     11 C7          0.5870    6.1456   -2.1875 C.ar      1 <0>        -0.1029
     12 C8          0.0377    7.3747   -2.4840 C.ar      1 <0>        -0.0655
     13 C9         -1.2819    7.6528   -2.1565 C.ar      1 <0>        -0.0814
     14 C10        -2.0583    6.7155   -1.5362 C.ar      1 <0>        -0.0861
     15 C11        -1.5230    5.4625   -1.2263 C.ar      1 <0>        -0.0502
     16 N2         -0.0162    1.3436    0.0094 N.am      1 <0>        -0.4098
     17 C12         0.0021   -0.0041    0.0020 C.2       1 <0>         0.3655
     18 O1         -1.0425   -0.6263    0.0086 O.2       1 <0>        -0.3299
     19 C13         1.2901   -0.7246   -0.0142 C.2       1 <0>        -0.0304
     20 C14         1.3009   -2.0542   -0.0214 C.2       1 <0>        -0.1428
     21 C15         2.5789   -2.8402   -0.0319 C.3       1 <0>        -0.1428
     22 C16         3.7445   -1.9821   -0.4289 C.2       1 <0>         0.3090
     23 O2          4.7748   -2.5134   -0.7854 O.2       1 <0>        -0.3317
     24 N3          3.6763   -0.6405   -0.3991 N.am      1 <0>        -0.2695
     25 N4          2.4875   -0.0024   -0.0275 N.pl3     1 <0>        -0.3018
     26 H3         -3.7624   -1.1970    3.5848 H         1 <0>         0.1000
     27 H4         -2.0893   -1.3297    4.1774 H         1 <0>         0.0986
     28 H5         -3.3775   -0.7644    5.2679 H         1 <0>         0.1319
     29 H6         -2.8720    0.3255    1.4116 H         1 <0>         0.1197
     30 H7         -1.1989    0.1928    2.0042 H         1 <0>         0.1162
     31 H8         -1.0257    2.6656    2.0688 H         1 <0>         0.1150
     32 H9         -2.6989    2.7982    1.4762 H         1 <0>         0.0971
     33 H10         1.6145    5.9344   -2.4443 H         1 <0>         0.1640
     34 H11         0.6385    8.1265   -2.9742 H         1 <0>         0.1740
     35 H12        -1.6993    8.6200   -2.3947 H         1 <0>         0.1742
     36 H13        -3.0840    6.9427   -1.2855 H         1 <0>         0.1645
     37 H14         0.8172    1.8399    0.0041 H         1 <0>         0.2183
     38 H15         0.3603   -2.5849   -0.0193 H         1 <0>         0.1700
     39 H16         2.7569   -3.2452    0.9643 H         1 <0>         0.1391
     40 H17         2.4856   -3.6635   -0.7401 H         1 <0>         0.1419
     41 H18         4.4532   -0.1118   -0.6395 H         1 <0>         0.2631
     42 H19         2.4955    0.9348    0.2225 H         1 <0>         0.2358
     43 N5         -2.0278    4.3496   -0.6329 N.pl3     1 <0>        -0.0961
     44 H20        -2.9882    4.2485   -0.2840 H         1 <0>         0.3196
@<TRIPOS>BOND
     1    1    2 1
     2    1   26 1
     3    1   27 1
     4    1   28 1
     5    2    3 1
     6    3    4 1
     7    3   29 1
     8    3   30 1
     9    4    5 1
    10    4   31 1
    11    4   32 1
    12    5    6 1
    13    5    7 1
    14    5   16 1
    15    7    8 1
    16    7   43 2
    17    8    9 1
    18    8   10 1
    19   10   15 ar
    20   10   11 ar
    21   11   12 ar
    22   11   33 1
    23   12   13 ar
    24   12   34 1
    25   13   14 ar
    26   13   35 1
    27   14   15 ar
    28   14   36 1
    29   15   43 1
    30   16   17 am
    31   16   37 1
    32   17   18 2
    33   17   19 1
    34   19   25 1
    35   19   20 2
    36   20   21 1
    37   20   38 1
    38   21   22 1
    39   21   39 1
    40   21   40 1
    41   22   23 2
    42   22   24 am
    43   24   25 1
    44   24   41 1
    45   25   42 1
    46   43   44 1
@<TRIPOS>MOLECULE
ZINC03867604
   43    45     0     0     0
SMALL
USER_CHARGES

@<TRIPOS>ATOM
      1 C1         -4.2597   -0.1138    4.2909 C.3       1 <0>        -0.2924
      2 S1         -3.9106   -1.8119    3.7567 S.3       1 <0>        -0.0061
      3 C2         -3.3381   -1.6247    2.0457 C.3       1 <0>        -0.2421
      4 C3         -3.0046   -3.0009    1.4660 C.3       1 <0>        -0.1545
      5 C4         -2.5217   -2.8430    0.0228 C.3       1 <0>         0.1225
      6 H1         -3.2700   -2.2985   -0.5531 H         1 <0>         0.1237
      7 C5         -2.3104   -4.2044   -0.5879 C.2       1 <0>        -0.0077
      8 N1         -2.8890   -4.6403   -1.7393 N.pl3     1 <0>        -0.2108
      9 H2         -3.5194   -4.1234   -2.3184 H         1 <0>         0.2579
     10 C6         -2.4445   -5.9285   -1.9601 C.ar      1 <0>        -0.0422
     11 C7         -2.6759   -6.8749   -2.9492 C.ar      1 <0>        -0.1284
     12 C8         -2.0632   -8.1074   -2.8716 C.ar      1 <0>        -0.1065
     13 C9         -1.2187   -8.4075   -1.8121 C.ar      1 <0>        -0.1439
     14 C10        -0.9793   -7.4888   -0.8299 C.ar      1 <0>        -0.0667
     15 C11        -1.5890   -6.2327   -0.8878 C.ar      1 <0>        -0.0517
     16 N2         -1.5524   -5.1361   -0.0879 N.2       1 <0>        -0.1705
     17 N3         -1.2591   -2.1002    0.0088 N.am      1 <0>        -0.3785
     18 C12        -1.2700   -0.7525    0.0161 C.2       1 <0>         0.3533
     19 O1         -2.3277   -0.1532    0.0344 O.2       1 <0>        -0.3641
     20 C13         0.0021   -0.0041    0.0020 C.2       1 <0>        -0.0038
     21 C14        -0.0160    1.3255    0.0093 C.2       1 <0>        -0.1937
     22 C15         1.2447    2.1391    0.0017 C.3       1 <0>        -0.1351
     23 C16         2.4267    1.3108   -0.4101 C.2       1 <0>         0.3096
     24 O2          3.4433    1.8682   -0.7662 O.2       1 <0>        -0.3621
     25 N4          2.3877   -0.0322   -0.3947 N.am      1 <0>        -0.2648
     26 N5          1.2148   -0.7000   -0.0194 N.pl3     1 <0>        -0.2944
     27 H3         -4.6145   -0.1229    5.3215 H         1 <0>         0.1149
     28 H4         -3.3493    0.4821    4.2253 H         1 <0>         0.0916
     29 H5         -5.0249    0.3196    3.6470 H         1 <0>         0.0919
     30 H6         -2.4471   -0.9971    2.0272 H         1 <0>         0.1075
     31 H7         -4.1227   -1.1596    1.4489 H         1 <0>         0.1099
     32 H8         -3.8955   -3.6285    1.4845 H         1 <0>         0.1082
     33 H9         -2.2200   -3.4660    2.0628 H         1 <0>         0.1185
     34 H10        -3.3325   -6.6466   -3.7756 H         1 <0>         0.1294
     35 H11        -2.2420   -8.8445   -3.6404 H         1 <0>         0.1355
     36 H12        -0.7456   -9.3772   -1.7637 H         1 <0>         0.1357
     37 H13        -0.3197   -7.7326   -0.0102 H         1 <0>         0.1431
     38 H14        -0.4152   -2.5783   -0.0057 H         1 <0>         0.2359
     39 H15        -0.9678    1.8357    0.0166 H         1 <0>         0.1649
     40 H16         1.1298    2.9685   -0.6962 H         1 <0>         0.1272
     41 H17         1.4186    2.5369    1.0014 H         1 <0>         0.1246
     42 H18         3.1748   -0.5412   -0.6442 H         1 <0>         0.2598
     43 H19         1.2438   -1.6384    0.2242 H         1 <0>         0.2545
@<TRIPOS>BOND
     1    1    2 1
     2    1   27 1
     3    1   28 1
     4    1   29 1
     5    2    3 1
     6    3    4 1
     7    3   30 1
     8    3   31 1
     9    4    5 1
    10    4   32 1
    11    4   33 1
    12    5    6 1
    13    5    7 1
    14    5   17 1
    15    7   16 2
    16    7    8 1
    17    8    9 1
    18    8   10 1
    19   10   15 ar
    20   10   11 ar
    21   11   12 ar
    22   11   34 1
    23   12   13 ar
    24   12   35 1
    25   13   14 ar
    26   13   36 1
    27   14   15 ar
    28   14   37 1
    29   15   16 1
    30   17   18 am
    31   17   38 1
    32   18   19 2
    33   18   20 1
    34   20   26 1
    35   20   21 2
    36   21   22 1
    37   21   39 1
    38   22   23 1
    39   22   40 1
    40   22   41 1
    41   23   24 2
    42   23   25 am
    43   25   26 1
    44   25   42 1
    45   26   43 1
@<TRIPOS>MOLECULE
ZINC03867604
   44    46     0     0     0
SMALL
USER_CHARGES

@<TRIPOS>ATOM
      1 C1         -4.2597   -0.1138    4.2909 C.3       1 <0>        -0.2865
      2 S1         -3.9106   -1.8119    3.7567 S.3       1 <0>         0.0116
      3 C2         -3.3381   -1.6247    2.0457 C.3       1 <0>        -0.2497
      4 C3         -3.0046   -3.0009    1.4660 C.3       1 <0>        -0.1626
      5 C4         -2.5217   -2.8430    0.0228 C.3       1 <0>         0.0804
      6 H1         -3.2700   -2.2985   -0.5531 H         1 <0>         0.1628
      7 C5         -2.3104   -4.2044   -0.5879 C.cat     1 <0>         0.1126
      8 N1         -2.8890   -4.6403   -1.7393 N.pl3     1 <0>        -0.1358
      9 H2         -3.5194   -4.1234   -2.3184 H         1 <0>         0.3128
     10 C6         -2.4445   -5.9285   -1.9601 C.ar      1 <0>        -0.0134
     11 C7         -2.6759   -6.8749   -2.9492 C.ar      1 <0>        -0.1000
     12 C8         -2.0632   -8.1074   -2.8716 C.ar      1 <0>        -0.0661
     13 C9         -1.2187   -8.4075   -1.8121 C.ar      1 <0>        -0.0799
     14 C10        -0.9793   -7.4888   -0.8299 C.ar      1 <0>        -0.0900
     15 C11        -1.5890   -6.2327   -0.8878 C.ar      1 <0>        -0.0539
     16 N2         -1.2591   -2.1002    0.0088 N.am      1 <0>        -0.4072
     17 C12        -1.2700   -0.7525    0.0161 C.2       1 <0>         0.3650
     18 O1         -2.3277   -0.1532    0.0344 O.2       1 <0>        -0.3344
     19 C13         0.0021   -0.0041    0.0020 C.2       1 <0>        -0.0279
     20 C14        -0.0160    1.3255    0.0093 C.2       1 <0>        -0.1465
     21 C15         1.2447    2.1391    0.0017 C.3       1 <0>        -0.1423
     22 C16         2.4267    1.3108   -0.4101 C.2       1 <0>         0.3087
     23 O2          3.4433    1.8682   -0.7662 O.2       1 <0>        -0.3333
     24 N3          2.3877   -0.0322   -0.3947 N.am      1 <0>        -0.2685
     25 N4          1.2148   -0.7000   -0.0194 N.pl3     1 <0>        -0.2997
     26 H3         -4.6145   -0.1229    5.3215 H         1 <0>         0.1316
     27 H4         -3.3493    0.4821    4.2253 H         1 <0>         0.0979
     28 H5         -5.0249    0.3196    3.6470 H         1 <0>         0.1005
     29 H6         -2.4471   -0.9971    2.0272 H         1 <0>         0.1141
     30 H7         -4.1227   -1.1596    1.4489 H         1 <0>         0.1219
     31 H8         -3.8955   -3.6285    1.4845 H         1 <0>         0.1168
     32 H9         -2.2200   -3.4660    2.0628 H         1 <0>         0.0947
     33 H10        -3.3325   -6.6466   -3.7756 H         1 <0>         0.1669
     34 H11        -2.2420   -8.8445   -3.6404 H         1 <0>         0.1747
     35 H12        -0.7456   -9.3772   -1.7637 H         1 <0>         0.1740
     36 H13        -0.3197   -7.7326   -0.0102 H         1 <0>         0.1628
     37 H14        -0.4152   -2.5783   -0.0057 H         1 <0>         0.2244
     38 H15        -0.9678    1.8357    0.0166 H         1 <0>         0.1691
     39 H16         1.1298    2.9685   -0.6962 H         1 <0>         0.1411
     40 H17         1.4186    2.5369    1.0014 H         1 <0>         0.1379
     41 H18         3.1748   -0.5412   -0.6442 H         1 <0>         0.2636
     42 H19         1.2438   -1.6384    0.2242 H         1 <0>         0.2381
     43 N5         -1.5518   -5.1360   -0.0870 N.pl3     1 <0>        -0.1014
     44 H20        -1.0086   -5.0545    0.7805 H         1 <0>         0.3147
@<TRIPOS>BOND
     1    1    2 1
     2    1   26 1
     3    1   27 1
     4    1   28 1
     5    2    3 1
     6    3    4 1
     7    3   29 1
     8    3   30 1
     9    4    5 1
    10    4   31 1
    11    4   32 1
    12    5    6 1
    13    5    7 1
    14    5   16 1
    15    7    8 1
    16    7   43 2
    17    8    9 1
    18    8   10 1
    19   10   15 ar
    20   10   11 ar
    21   11   12 ar
    22   11   33 1
    23   12   13 ar
    24   12   34 1
    25   13   14 ar
    26   13   35 1
    27   14   15 ar
    28   14   36 1
    29   15   43 1
    30   16   17 am
    31   16   37 1
    32   17   18 2
    33   17   19 1
    34   19   25 1
    35   19   20 2
    36   20   21 1
    37   20   38 1
    38   21   22 1
    39   21   39 1
    40   21   40 1
    41   22   23 2
    42   22   24 am
    43   24   25 1
    44   24   41 1
    45   25   42 1
    46   43   44 1
@<TRIPOS>MOLECULE
ZINC03867702
   42    44     0     0     0
SMALL
USER_CHARGES

@<TRIPOS>ATOM
      1 C1          3.4490   10.0406   -1.1230 C.3       1 <0>        -0.1886
      2 C2          4.7090    9.5168   -0.4835 C.ar      1 <0>        -0.0531
      3 C3          4.8310    8.1639   -0.1937 C.ar      1 <0>         0.0528
      4 C4          5.9959    7.6844    0.3904 C.ar      1 <0>        -0.0993
      5 C5          7.0272    8.5543    0.6861 C.ar      1 <0>        -0.1202
      6 C6          6.9004    9.9013    0.4016 C.ar      1 <0>        -0.0839
      7 C7          5.7414   10.3822   -0.1802 C.ar      1 <0>        -0.0954
      8 N1          5.6096   11.8251   -0.4825 N.pl3     1 <0>         0.5509
      9 O1          6.5672   12.5656   -0.3475 O.2       1 <0>        -0.3494
     10 O2          4.5435   12.2720   -0.8665 O.3       1 <0>        -0.3643
     11 N2          3.7846    7.2852   -0.4951 N.am      1 <0>        -0.3164
     12 C8          4.0249    5.9636   -0.6049 C.2       1 <0>         0.3088
     13 O3          5.1615    5.5461   -0.5352 O.2       1 <0>        -0.3408
     14 C9          2.8814    5.0046   -0.8145 C.3       1 <0>        -0.2125
     15 C10         3.4234    3.5768   -0.9054 C.3       1 <0>        -0.1109
     16 C11         2.2799    2.6178   -1.1150 C.2       1 <0>         0.1480
     17 N3          2.5612    1.2930   -1.2213 N.2       1 <0>        -0.2967
     18 H1          0.9409    4.0872   -1.0983 H         1 <0>         0.2426
     19 C12         1.5698    0.3910   -1.4101 C.2       1 <0>         0.3158
     20 O4          1.8074   -0.7987   -1.5073 O.2       1 <0>        -0.3049
     21 C13         0.1951    0.9053   -1.5002 C.ar      1 <0>        -0.1899
     22 C14        -0.8954    0.0624   -1.7049 C.ar      1 <0>        -0.0367
     23 C15        -2.1610    0.5993   -1.7933 C.ar      1 <0>        -0.1601
     24 C16        -2.3572    1.9690   -1.6737 C.ar      1 <0>        -0.0742
     25 C17        -1.2940    2.8182   -1.4652 C.ar      1 <0>        -0.1838
     26 C18        -0.0014    2.2982   -1.3720 C.ar      1 <0>         0.0585
     27 N4          1.0765    3.1002   -1.1847 N.pl3     1 <0>        -0.2233
     28 H2          2.7924   10.4463   -0.3534 H         1 <0>         0.1050
     29 H3          3.7023   10.8258   -1.8354 H         1 <0>         0.1339
     30 H4          2.9407    9.2284   -1.6430 H         1 <0>         0.0655
     31 H5          6.0952    6.6324    0.6135 H         1 <0>         0.1902
     32 H6          7.9335    8.1819    1.1404 H         1 <0>         0.1539
     33 H7          7.7082   10.5795    0.6338 H         1 <0>         0.1660
     34 H8          2.8862    7.6272   -0.6247 H         1 <0>         0.2402
     35 H9          2.3616    5.2555   -1.7392 H         1 <0>         0.1054
     36 H10         2.1880    5.0774    0.0234 H         1 <0>         0.1057
     37 H11         3.9432    3.3259    0.0192 H         1 <0>         0.1450
     38 H12         4.1168    3.5040   -1.7433 H         1 <0>         0.1471
     39 H13        -0.7489   -1.0035   -1.7986 H         1 <0>         0.1638
     40 H14        -3.0080   -0.0506   -1.9566 H         1 <0>         0.1396
     41 H15        -3.3563    2.3729   -1.7456 H         1 <0>         0.1363
     42 H16        -1.4589    3.8817   -1.3738 H         1 <0>         0.1294
@<TRIPOS>BOND
     1    1    2 1
     2    1   28 1
     3    1   29 1
     4    1   30 1
     5    2    7 ar
     6    2    3 ar
     7    3    4 ar
     8    3   11 1
     9    4    5 ar
    10    4   31 1
    11    5    6 ar
    12    5   32 1
    13    6    7 ar
    14    6   33 1
    15    7    8 1
    16    8    9 2
    17    8   10 1
    18   11   12 am
    19   11   34 1
    20   12   13 2
    21   12   14 1
    22   14   15 1
    23   14   35 1
    24   14   36 1
    25   15   16 1
    26   15   37 1
    27   15   38 1
    28   16   27 1
    29   16   17 2
    30   17   19 1
    31   18   27 1
    32   19   20 2
    33   19   21 1
    34   21   22 ar
    35   21   26 ar
    36   22   23 ar
    37   22   39 1
    38   23   24 ar
    39   23   40 1
    40   24   25 ar
    41   24   41 1
    42   25   26 ar
    43   25   42 1
    44   26   27 1
@<TRIPOS>MOLECULE
ZINC03867713
   42    45     0     0     0
SMALL
USER_CHARGES

@<TRIPOS>ATOM
      1 C1         -0.3925    2.0879    8.3652 C.ar      1 <0>        -0.1176
      2 C2         -0.2307    3.4411    8.1341 C.ar      1 <0>        -0.1358
      3 C3         -0.8256    4.0305    7.0343 C.ar      1 <0>        -0.1007
      4 C4         -1.5823    3.2666    6.1655 C.ar      1 <0>        -0.1202
      5 C5         -1.7484    1.9144    6.3995 C.ar      1 <0>        -0.1043
      6 C6         -1.1492    1.3240    7.4964 C.ar      1 <0>        -0.1371
      7 C7         -2.2312    3.9093    4.9668 C.3       1 <0>         0.0407
      8 N1         -1.3130    3.8547    3.8266 N.am      1 <0>        -0.2331
      9 C8         -1.3397    2.7665    2.9675 C.2       1 <0>         0.1038
     10 C9         -0.4524    2.7377    1.8951 C.2       1 <0>        -0.2490
     11 C10         0.4437    3.8097    1.7163 C.2       1 <0>         0.3853
     12 O1          1.2272    3.8082    0.7831 O.2       1 <0>        -0.3605
     13 N2          0.4248    4.8382    2.5890 N.am      1 <0>        -0.3350
     14 H1          1.0596    5.6008    2.4648 H         1 <0>         0.2841
     15 C11        -0.4340    4.8538    3.6228 C.2       1 <0>         0.4128
     16 O2         -0.4219    5.7979    4.3890 O.2       1 <0>        -0.3820
     17 N3         -0.6984    1.5583    1.2133 N.pl3     1 <0>        -0.0893
     18 C12        -1.6994    0.9181    1.8848 C.2       1 <0>         0.1184
     19 N4         -2.0656    1.6513    2.9219 N.2       1 <0>        -0.1891
     20 C13        -2.2776   -0.3799    1.5142 C.2       1 <0>        -0.2537
     21 C14        -3.0714   -1.2285    2.2669 C.2       1 <0>        -0.1076
     22 C15        -3.4843   -2.3952    1.6673 C.2       1 <0>        -0.1883
     23 C16        -3.0937   -2.6602    0.3951 C.2       1 <0>        -0.3277
     24 S1         -2.1338   -1.2778   -0.0207 S.3       1 <0>         0.4113
     25 C17        -0.0127    1.0858    0.0080 C.3       1 <0>        -0.0247
     26 C18        -0.7527    1.5927   -1.2315 C.3       1 <0>        -0.0189
     27 O3         -0.0838    1.1318   -2.4072 O.3       1 <0>        -0.3488
     28 H2          0.0720    1.6275    9.2246 H         1 <0>         0.1280
     29 H3          0.3602    4.0380    8.8131 H         1 <0>         0.1313
     30 H4         -0.6995    5.0879    6.8540 H         1 <0>         0.1491
     31 H5         -2.3432    1.3184    5.7231 H         1 <0>         0.1416
     32 H6         -1.2759    0.2668    7.6771 H         1 <0>         0.1292
     33 H7         -2.4662    4.9490    5.1946 H         1 <0>         0.1241
     34 H8         -3.1488    3.3750    4.7203 H         1 <0>         0.1173
     35 H9         -3.3564   -0.9835    3.2794 H         1 <0>         0.1645
     36 H10        -4.1082   -3.0944    2.2042 H         1 <0>         0.1501
     37 H11        -3.3247   -3.5234   -0.2115 H         1 <0>         0.1922
     38 H12         0.0021   -0.0041    0.0020 H         1 <0>         0.1193
     39 H13         1.0099    1.4631    0.0003 H         1 <0>         0.1489
     40 H14        -1.7753    1.2154   -1.2238 H         1 <0>         0.0657
     41 H15        -0.7675    2.6825   -1.2255 H         1 <0>         0.0838
     42 H16        -0.4991    1.4161   -3.2329 H         1 <0>         0.2220
@<TRIPOS>BOND
     1    1    6 ar
     2    1    2 ar
     3    1   28 1
     4    2    3 ar
     5    2   29 1
     6    3    4 ar
     7    3   30 1
     8    4    5 ar
     9    4    7 1
    10    5    6 ar
    11    5   31 1
    12    6   32 1
    13    7    8 1
    14    7   33 1
    15    7   34 1
    16    8   15 am
    17    8    9 1
    18    9   19 1
    19    9   10 2
    20   10   11 1
    21   10   17 1
    22   11   12 2
    23   11   13 am
    24   13   14 1
    25   13   15 am
    26   15   16 2
    27   17   18 1
    28   17   25 1
    29   18   19 2
    30   18   20 1
    31   20   24 1
    32   20   21 2
    33   21   22 1
    34   21   35 1
    35   22   23 2
    36   22   36 1
    37   23   24 1
    38   23   37 1
    39   25   26 1
    40   25   38 1
    41   25   39 1
    42   26   27 1
    43   26   40 1
    44   26   41 1
    45   27   42 1
@<TRIPOS>MOLECULE
ZINC03867713
   43    46     0     0     0
SMALL
USER_CHARGES

@<TRIPOS>ATOM
      1 C1         -0.3925    2.0879    8.3652 C.ar      1 <0>        -0.0948
      2 C2         -0.2307    3.4411    8.1341 C.ar      1 <0>        -0.1138
      3 C3         -0.8256    4.0305    7.0343 C.ar      1 <0>        -0.0866
      4 C4         -1.5823    3.2666    6.1655 C.ar      1 <0>        -0.1459
      5 C5         -1.7484    1.9144    6.3995 C.ar      1 <0>        -0.1277
      6 C6         -1.1492    1.3240    7.4964 C.ar      1 <0>        -0.1207
      7 C7         -2.2312    3.9093    4.9668 C.3       1 <0>         0.0275
      8 N1         -1.3130    3.8547    3.8266 N.am      1 <0>        -0.2391
      9 C8         -1.3397    2.7665    2.9675 C.2       1 <0>         0.1355
     10 C9         -0.4524    2.7377    1.8951 C.2       1 <0>        -0.1866
     11 C10         0.4437    3.8097    1.7163 C.2       1 <0>         0.3767
     12 O1          1.2272    3.8082    0.7831 O.2       1 <0>        -0.2994
     13 N2          0.4248    4.8382    2.5890 N.am      1 <0>        -0.3245
     14 H1          1.0596    5.6008    2.4648 H         1 <0>         0.3108
     15 C11        -0.4340    4.8538    3.6228 C.2       1 <0>         0.4123
     16 O2         -0.4219    5.7979    4.3890 O.2       1 <0>        -0.3149
     17 N3         -0.6984    1.5583    1.2133 N.pl3     1 <0>        -0.0310
     18 C12        -1.6994    0.9181    1.8848 C.cat     1 <0>         0.2088
     19 C13        -2.2776   -0.3799    1.5142 C.2       1 <0>        -0.3898
     20 C14        -3.0714   -1.2285    2.2669 C.2       1 <0>        -0.0694
     21 C15        -3.4843   -2.3952    1.6673 C.2       1 <0>        -0.1963
     22 C16        -3.0937   -2.6602    0.3951 C.2       1 <0>        -0.2651
     23 S1         -2.1338   -1.2778   -0.0207 S.3       1 <0>         0.5205
     24 C17        -0.0127    1.0858    0.0080 C.3       1 <0>        -0.0330
     25 C18        -0.7527    1.5927   -1.2315 C.3       1 <0>        -0.0151
     26 O3         -0.0838    1.1318   -2.4072 O.3       1 <0>        -0.3358
     27 H2          0.0720    1.6275    9.2246 H         1 <0>         0.1492
     28 H3          0.3602    4.0380    8.8131 H         1 <0>         0.1520
     29 H4         -0.6995    5.0879    6.8540 H         1 <0>         0.1578
     30 H5         -2.3432    1.3184    5.7231 H         1 <0>         0.0938
     31 H6         -1.2759    0.2668    7.6771 H         1 <0>         0.1410
     32 H7         -2.4662    4.9490    5.1946 H         1 <0>         0.1582
     33 H8         -3.1488    3.3750    4.7203 H         1 <0>         0.0928
     34 H9         -3.3564   -0.9835    3.2794 H         1 <0>         0.1499
     35 H10        -4.1082   -3.0944    2.2042 H         1 <0>         0.1773
     36 H11        -3.3247   -3.5234   -0.2115 H         1 <0>         0.2193
     37 H12         0.0021   -0.0041    0.0020 H         1 <0>         0.1379
     38 H13         1.0099    1.4631    0.0003 H         1 <0>         0.1760
     39 H14        -1.7753    1.2154   -1.2238 H         1 <0>         0.0647
     40 H15        -0.7675    2.6825   -1.2255 H         1 <0>         0.0909
     41 H16        -0.4991    1.4161   -3.2329 H         1 <0>         0.2436
     42 N4         -2.0676    1.6506    2.9237 N.pl3     1 <0>        -0.1223
     43 H17        -2.8026    1.3977    3.5945 H         1 <0>         0.3150
@<TRIPOS>BOND
     1    1    6 ar
     2    1    2 ar
     3    1   27 1
     4    2    3 ar
     5    2   28 1
     6    3    4 ar
     7    3   29 1
     8    4    5 ar
     9    4    7 1
    10    5    6 ar
    11    5   30 1
    12    6   31 1
    13    7    8 1
    14    7   32 1
    15    7   33 1
    16    8   15 am
    17    8    9 1
    18    9   10 2
    19    9   42 1
    20   10   11 1
    21   10   17 1
    22   11   12 2
    23   11   13 am
    24   13   14 1
    25   13   15 am
    26   15   16 2
    27   17   18 1
    28   17   24 1
    29   18   19 1
    30   18   42 2
    31   19   23 1
    32   19   20 2
    33   20   21 1
    34   20   34 1
    35   21   22 2
    36   21   35 1
    37   22   23 1
    38   22   36 1
    39   24   25 1
    40   24   37 1
    41   24   38 1
    42   25   26 1
    43   25   39 1
    44   25   40 1
    45   26   41 1
    46   42   43 1
@<TRIPOS>MOLECULE
ZINC03867736
   42    44     0     0     0
SMALL
USER_CHARGES

@<TRIPOS>ATOM
      1 C1          4.1127    3.0603    0.5436 C.3       1 <0>        -0.1863
      2 C2          3.2645    2.3957   -0.5425 C.3       1 <0>        -0.0098
      3 C3          2.2672    1.4422    0.0743 C.ar      1 <0>        -0.1293
      4 C4          2.4128    0.3050    0.8375 C.ar      1 <0>        -0.0751
      5 C5          1.2936   -0.3823    1.2734 C.ar      1 <0>        -0.1531
      6 C6          0.0318    0.0759    0.9406 C.ar      1 <0>        -0.0960
      7 C7         -0.1175    1.2143    0.1766 C.ar      1 <0>        -0.1498
      8 C8          1.0054    1.9124   -0.2664 C.ar      1 <0>         0.0586
      9 N1          1.1103    3.0690   -1.0373 N.pl3     1 <0>        -0.1911
     10 C9          2.4062    3.4243   -1.2475 C.2       1 <0>         0.1778
     11 C10         2.8454    4.4946   -1.9542 C.2       1 <0>        -0.4063
     12 C11         2.0393    5.6357   -2.0717 C.2       1 <0>         0.2905
     13 O1          1.1752    5.8569   -1.2462 O.2       1 <0>        -0.3350
     14 C12         2.2442    6.5878   -3.2217 C.3       1 <0>        -0.2993
     15 S1          1.0567    7.9532   -3.0952 S.3       1 <0>         0.2627
     16 C13         1.4199    8.9648   -4.4914 C.2       1 <0>        -0.1927
     17 N2          0.7792   10.1227   -4.8333 N.pl3     1 <0>        -0.2479
     18 H1          0.0446   10.5319   -4.3498 H         1 <0>         0.2444
     19 C14         1.3566   10.6037   -5.9741 C.2       1 <0>         0.1202
     20 N3          2.3080    9.7749   -6.3274 N.2       1 <0>        -0.1636
     21 N4          2.3485    8.7362   -5.3881 N.2       1 <0>        -0.1057
     22 N5          0.9951   11.7650   -6.6448 N.pl3     1 <0>        -0.4012
     23 C15        -0.0386    3.8131   -1.5593 C.3       1 <0>        -0.0724
     24 C16         4.1563    1.6624   -1.5466 C.3       1 <0>        -0.1909
     25 H2          4.6724    2.2976    1.0851 H         1 <0>         0.0819
     26 H3          4.8076    3.7626    0.0831 H         1 <0>         0.0864
     27 H4          3.4624    3.5943    1.2365 H         1 <0>         0.0916
     28 H5          3.3996   -0.0503    1.0952 H         1 <0>         0.1333
     29 H6          1.4052   -1.2742    1.8722 H         1 <0>         0.1350
     30 H7         -0.8415   -0.4606    1.2812 H         1 <0>         0.1352
     31 H8         -1.1060    1.5634   -0.0829 H         1 <0>         0.1348
     32 H9          3.8162    4.4683   -2.4266 H         1 <0>         0.1578
     33 H10         3.1751    6.9518   -3.1913 H         1 <0>         0.1263
     34 H11         2.0913    6.0593   -4.1627 H         1 <0>         0.1349
     35 H12         1.4642   12.0241   -7.4534 H         1 <0>         0.2542
     36 H13         0.2736   12.3169   -6.3047 H         1 <0>         0.2243
     37 H14        -0.6826    3.1384   -2.1233 H         1 <0>         0.0761
     38 H15        -0.6003    4.2429   -0.7299 H         1 <0>         0.0995
     39 H16         0.3123    4.6116   -2.2130 H         1 <0>         0.1265
     40 H17         3.5366    1.2137   -2.3229 H         1 <0>         0.0863
     41 H18         4.8510    2.3696   -1.9997 H         1 <0>         0.0835
     42 H19         4.7165    0.8815   -1.0324 H         1 <0>         0.0836
@<TRIPOS>BOND
     1    1    2 1
     2    1   25 1
     3    1   26 1
     4    1   27 1
     5    2   10 1
     6    2    3 1
     7    2   24 1
     8    3    8 ar
     9    3    4 ar
    10    4    5 ar
    11    4   28 1
    12    5    6 ar
    13    5   29 1
    14    6    7 ar
    15    6   30 1
    16    7    8 ar
    17    7   31 1
    18    8    9 1
    19    9   10 1
    20    9   23 1
    21   10   11 2
    22   11   12 1
    23   11   32 1
    24   12   13 2
    25   12   14 1
    26   14   15 1
    27   14   33 1
    28   14   34 1
    29   15   16 1
    30   16   21 2
    31   16   17 1
    32   17   18 1
    33   17   19 1
    34   19   20 2
    35   19   22 1
    36   20   21 1
    37   22   35 1
    38   22   36 1
    39   23   37 1
    40   23   38 1
    41   23   39 1
    42   24   40 1
    43   24   41 1
    44   24   42 1
@<TRIPOS>MOLECULE
ZINC03867874
   43    45     0     0     0
SMALL
USER_CHARGES

@<TRIPOS>ATOM
      1 C1         -4.1097    2.9766    3.3846 C.3       1 <0>        -0.2352
      2 C2         -4.5716    2.7169    4.8199 C.3       1 <0>        -0.0155
      3 N1         -3.4590    2.1680    5.5992 N.pl3     1 <0>        -0.1772
      4 C3         -2.5436    2.8816    6.3097 C.2       1 <0>         0.0250
      5 N2         -1.6952    2.0783    6.8811 N.2       1 <0>        -0.1657
      6 C4         -2.0093    0.7923    6.5753 C.ar      1 <0>        -0.0579
      7 C5         -3.1503    0.8337    5.7526 C.ar      1 <0>        -0.0300
      8 C6         -3.7143   -0.3462    5.2808 C.ar      1 <0>        -0.1313
      9 C7         -3.1660   -1.5500    5.6160 C.ar      1 <0>        -0.1024
     10 C8         -2.0320   -1.6100    6.4368 C.ar      1 <0>        -0.1559
     11 C9         -1.4486   -0.4386    6.9112 C.ar      1 <0>         0.0053
     12 C10        -1.4484   -2.9189    6.7915 C.2       1 <0>         0.3638
     13 O1         -0.4120   -2.9708    7.4259 O.2       1 <0>        -0.3221
     14 N3         -2.0642   -4.0562    6.4124 N.am      1 <0>        -0.3465
     15 N4         -1.5691   -5.2960    6.8374 N.2       1 <0>         0.0246
     16 C11        -2.0907   -6.3943    6.3815 C.2       1 <0>        -0.1145
     17 C12        -3.0460   -6.3463    5.2613 C.ar      1 <0>        -0.1274
     18 C13        -2.9836   -5.3061    4.3302 C.ar      1 <0>        -0.1223
     19 C14        -3.8786   -5.2652    3.2837 C.ar      1 <0>        -0.1628
     20 C15        -4.8446   -6.2557    3.1501 C.ar      1 <0>         0.0948
     21 C16        -4.9148   -7.2926    4.0691 C.ar      1 <0>        -0.1830
     22 C17        -4.0179   -7.3475    5.1215 C.ar      1 <0>         0.1077
     23 O2         -4.0821   -8.3647    6.0190 O.3       1 <0>        -0.2876
     24 O3         -5.7232   -6.2085    2.1151 O.3       1 <0>        -0.2913
     25 C18        -2.5166    4.3845    6.4183 C.3       1 <0>        -0.1413
     26 H1         -3.7778    2.0409    2.9348 H         1 <0>         0.0913
     27 H2         -3.2848    3.6890    3.3917 H         1 <0>         0.0873
     28 H3         -4.9375    3.3850    2.8049 H         1 <0>         0.0876
     29 H4         -4.9035    3.6526    5.2698 H         1 <0>         0.1011
     30 H5         -5.3965    2.0045    4.8129 H         1 <0>         0.1032
     31 H6         -4.5887   -0.3100    4.6478 H         1 <0>         0.1281
     32 H7         -3.6093   -2.4628    5.2464 H         1 <0>         0.1253
     33 H8         -0.5757   -0.4838    7.5455 H         1 <0>         0.1715
     34 H9         -2.8501   -4.0164    5.8453 H         1 <0>         0.2264
     35 H10        -1.8241   -7.3429    6.8236 H         1 <0>         0.1958
     36 H11        -2.2346   -4.5347    4.4312 H         1 <0>         0.1589
     37 H12        -3.8293   -4.4610    2.5645 H         1 <0>         0.1458
     38 H13        -5.6672   -8.0597    3.9607 H         1 <0>         0.1543
     39 H14        -4.7162   -8.2186    6.7343 H         1 <0>         0.2370
     40 H15        -5.4211   -6.6709    1.3214 H         1 <0>         0.2353
     41 H16        -3.1153    4.6978    7.2735 H         1 <0>         0.0997
     42 H17        -1.4884    4.7207    6.5519 H         1 <0>         0.1168
     43 H18        -2.9265    4.8220    5.5079 H         1 <0>         0.0834
@<TRIPOS>BOND
     1    1    2 1
     2    1   26 1
     3    1   27 1
     4    1   28 1
     5    2    3 1
     6    2   29 1
     7    2   30 1
     8    3    7 1
     9    3    4 1
    10    4    5 2
    11    4   25 1
    12    5    6 1
    13    6   11 ar
    14    6    7 ar
    15    7    8 ar
    16    8    9 ar
    17    8   31 1
    18    9   10 ar
    19    9   32 1
    20   10   11 ar
    21   10   12 1
    22   11   33 1
    23   12   13 2
    24   12   14 am
    25   14   15 1
    26   14   34 1
    27   15   16 2
    28   16   17 1
    29   16   35 1
    30   17   22 ar
    31   17   18 ar
    32   18   19 ar
    33   18   36 1
    34   19   20 ar
    35   19   37 1
    36   20   21 ar
    37   20   24 1
    38   21   22 ar
    39   21   38 1
    40   22   23 1
    41   23   39 1
    42   24   40 1
    43   25   41 1
    44   25   42 1
    45   25   43 1
@<TRIPOS>MOLECULE
ZINC03867882
   44    46     0     0     0
SMALL
USER_CHARGES

@<TRIPOS>ATOM
      1 C1          1.1826    2.0596   -0.1691 C.ar      1 <0>        -0.0793
      2 C2          2.3444    1.4898   -0.6411 C.ar      1 <0>        -0.1823
      3 C3          2.2878    0.3635   -1.4553 C.ar      1 <0>         0.0336
      4 C4          1.0588   -0.1915   -1.7961 C.ar      1 <0>        -0.1497
      5 C5         -0.1072    0.3728   -1.3279 C.ar      1 <0>        -0.1184
      6 C6         -0.0543    1.5047   -0.5094 C.ar      1 <0>        -0.1224
      7 C7         -1.3000    2.1151   -0.0114 C.2       1 <0>        -0.1164
      8 N1         -2.4168    1.4564   -0.0766 N.2       1 <0>         0.0154
      9 N2         -2.4044    0.0555   -0.0845 N.am      1 <0>        -0.3355
     10 C8         -3.5488   -0.6275   -0.2855 C.2       1 <0>         0.3639
     11 O1         -4.5924   -0.0275   -0.4600 O.2       1 <0>        -0.3302
     12 C9         -3.5357   -2.1021   -0.2938 C.ar      1 <0>        -0.1931
     13 C10        -2.3360   -2.7932   -0.0990 C.ar      1 <0>        -0.0586
     14 C11        -2.3280   -4.1693   -0.1025 C.ar      1 <0>        -0.2215
     15 C12        -3.5110   -4.8732   -0.3103 C.ar      1 <0>         0.1454
     16 C13        -4.7064   -4.1881   -0.5097 C.ar      1 <0>        -0.2225
     17 C14        -4.7221   -2.8121   -0.5021 C.ar      1 <0>        -0.0126
     18 N3         -3.4987   -6.2638   -0.3181 N.pl3     1 <0>        -0.4095
     19 N4          3.4664   -0.2104   -1.9317 N.pl3     1 <0>        -0.1948
     20 C15         3.5530   -1.6280   -1.5520 C.3       1 <0>        -0.1081
     21 C16         4.8290   -2.2323   -2.1441 C.3       1 <0>        -0.0149
     22 O2          5.9596   -1.4812   -1.6939 O.3       1 <0>        -0.2779
     23 C17         5.9084   -0.0963   -2.0470 C.3       1 <0>        -0.0144
     24 C18         4.6434    0.5297   -1.4539 C.3       1 <0>        -0.1177
     25 H1          1.2273    2.9339    0.4633 H         1 <0>         0.1352
     26 H2          3.3005    1.9178   -0.3783 H         1 <0>         0.1403
     27 H3          1.0187   -1.0658   -2.4288 H         1 <0>         0.1407
     28 H4         -1.0611   -0.0585   -1.5932 H         1 <0>         0.1529
     29 H5         -1.2837    3.1103    0.4077 H         1 <0>         0.1818
     30 H6         -1.5722   -0.4230    0.0547 H         1 <0>         0.2226
     31 H7         -1.4172   -2.2477    0.0577 H         1 <0>         0.1228
     32 H8         -1.4024   -4.7038    0.0523 H         1 <0>         0.1310
     33 H9         -5.6224   -4.7371   -0.6710 H         1 <0>         0.1363
     34 H10        -5.6498   -2.2812   -0.6566 H         1 <0>         0.1585
     35 H11        -4.3224   -6.7553   -0.4625 H         1 <0>         0.2237
     36 H12        -2.6664   -6.7422   -0.1792 H         1 <0>         0.2216
     37 H13         3.5803   -1.7128   -0.4656 H         1 <0>         0.0780
     38 H14         2.6845   -2.1618   -1.9377 H         1 <0>         0.1033
     39 H15         4.7779   -2.1961   -3.2323 H         1 <0>         0.0814
     40 H16         4.9270   -3.2680   -1.8186 H         1 <0>         0.1117
     41 H17         5.8887    0.0021   -3.1324 H         1 <0>         0.0819
     42 H18         6.7868    0.4137   -1.6513 H         1 <0>         0.1123
     43 H19         4.5708    1.5709   -1.7681 H         1 <0>         0.1080
     44 H20         4.6877    0.4800   -0.3660 H         1 <0>         0.0775
@<TRIPOS>BOND
     1    1    6 ar
     2    1    2 ar
     3    1   25 1
     4    2    3 ar
     5    2   26 1
     6    3    4 ar
     7    3   19 1
     8    4    5 ar
     9    4   27 1
    10    5    6 ar
    11    5   28 1
    12    6    7 1
    13    7    8 2
    14    7   29 1
    15    8    9 1
    16    9   10 am
    17    9   30 1
    18   10   11 2
    19   10   12 1
    20   12   17 ar
    21   12   13 ar
    22   13   14 ar
    23   13   31 1
    24   14   15 ar
    25   14   32 1
    26   15   16 ar
    27   15   18 1
    28   16   17 ar
    29   16   33 1
    30   17   34 1
    31   18   35 1
    32   18   36 1
    33   19   24 1
    34   19   20 1
    35   20   21 1
    36   20   37 1
    37   20   38 1
    38   21   22 1
    39   21   39 1
    40   21   40 1
    41   22   23 1
    42   23   24 1
    43   23   41 1
    44   23   42 1
    45   24   43 1
    46   24   44 1
@<TRIPOS>MOLECULE
ZINC03867889
   41    43     0     0     0
SMALL
USER_CHARGES

@<TRIPOS>ATOM
      1 C1          2.1038    5.6800   -0.1567 C.ar      1 <0>        -0.0566
      2 C2          2.3982    7.0231   -0.2145 C.ar      1 <0>        -0.2230
      3 C3          3.7236    7.4447   -0.2743 C.ar      1 <0>         0.1461
      4 C4          4.7554    6.5102   -0.2705 C.ar      1 <0>        -0.2229
      5 C5          4.4679    5.1658   -0.2080 C.ar      1 <0>        -0.0123
      6 C6          3.1379    4.7390   -0.1478 C.ar      1 <0>        -0.1907
      7 C7          2.8261    3.2991   -0.0812 C.2       1 <0>         0.3708
      8 O1          3.7269    2.4811   -0.0786 O.2       1 <0>        -0.3297
      9 N1          1.5435    2.8892   -0.0232 N.am      1 <0>        -0.3249
     10 N2          1.2474    1.5213    0.0400 N.2       1 <0>         0.0200
     11 C8          0.0097    1.1198   -0.0149 C.2       1 <0>        -0.0737
     12 C9         -1.0779    2.0992   -0.0167 C.2       1 <0>        -0.3007
     13 C10        -2.4444    1.8847    0.0490 C.2       1 <0>        -0.1118
     14 C11        -3.2800    2.9753    0.0325 C.2       1 <0>        -0.2114
     15 C12        -2.7368    4.2280   -0.0477 C.2       1 <0>        -0.1562
     16 S1         -0.9866    3.8804   -0.0962 S.3       1 <0>         0.2825
     17 N3         -3.3831    5.4591   -0.0785 N.pl3     1 <0>        -0.1419
     18 C13        -4.3469    5.5205   -1.1869 C.3       1 <0>        -0.1123
     19 C14        -5.0764    6.8660   -1.1476 C.3       1 <0>        -0.0153
     20 O2         -4.1168    7.9248   -1.2053 O.3       1 <0>        -0.2760
     21 C15        -3.1629    7.8958   -0.1401 C.3       1 <0>        -0.0120
     22 C16        -2.4139    6.5608   -0.1692 C.3       1 <0>        -0.1239
     23 N4          4.0176    8.8027   -0.3376 N.pl3     1 <0>        -0.4098
     24 H1          1.0753    5.3534   -0.1144 H         1 <0>         0.1269
     25 H2          1.6001    7.7506   -0.2172 H         1 <0>         0.1286
     26 H3          5.7826    6.8405   -0.3170 H         1 <0>         0.1362
     27 H4          5.2688    4.4413   -0.2050 H         1 <0>         0.1582
     28 H5          0.8254    3.5413   -0.0253 H         1 <0>         0.2122
     29 H6         -0.2139    0.0644   -0.0637 H         1 <0>         0.1936
     30 H7         -2.8440    0.8834    0.1122 H         1 <0>         0.1483
     31 H8         -4.3510    2.8452    0.0819 H         1 <0>         0.1503
     32 H9         -3.8183    5.4207   -2.1349 H         1 <0>         0.0846
     33 H10        -5.0701    4.7113   -1.0857 H         1 <0>         0.1097
     34 H11        -5.6484    6.9430   -0.2229 H         1 <0>         0.0826
     35 H12        -5.7514    6.9397   -2.0003 H         1 <0>         0.1165
     36 H13        -3.6791    8.0028    0.8139 H         1 <0>         0.0839
     37 H14        -2.4533    8.7139   -0.2637 H         1 <0>         0.1141
     38 H15        -1.7261    6.5109    0.6749 H         1 <0>         0.1110
     39 H16        -1.8544    6.4776   -1.1009 H         1 <0>         0.0840
     40 H17         4.9407    9.0977   -0.3790 H         1 <0>         0.2237
     41 H18         3.2995    9.4548   -0.3403 H         1 <0>         0.2213
@<TRIPOS>BOND
     1    1    6 ar
     2    1    2 ar
     3    1   24 1
     4    2    3 ar
     5    2   25 1
     6    3    4 ar
     7    3   23 1
     8    4    5 ar
     9    4   26 1
    10    5    6 ar
    11    5   27 1
    12    6    7 1
    13    7    8 2
    14    7    9 am
    15    9   10 1
    16    9   28 1
    17   10   11 2
    18   11   12 1
    19   11   29 1
    20   12   16 1
    21   12   13 2
    22   13   14 1
    23   13   30 1
    24   14   15 2
    25   14   31 1
    26   15   16 1
    27   15   17 1
    28   17   22 1
    29   17   18 1
    30   18   19 1
    31   18   32 1
    32   18   33 1
    33   19   20 1
    34   19   34 1
    35   19   35 1
    36   20   21 1
    37   21   22 1
    38   21   36 1
    39   21   37 1
    40   22   38 1
    41   22   39 1
    42   23   40 1
    43   23   41 1
@<TRIPOS>MOLECULE
ZINC03867986
   42    44     0     0     0
SMALL
USER_CHARGES

@<TRIPOS>ATOM
      1 C1         -5.1972    8.2352    4.3647 C.3       1 <0>        -0.1675
      2 C2         -5.3297    8.7661    2.9606 C.ar      1 <0>        -0.0075
      3 C3         -4.2092    9.2453    2.3019 C.ar      1 <0>         0.0048
      4 C4         -4.3502    9.7364    0.9928 C.ar      1 <0>        -0.0990
      5 C5         -5.6273    9.7220    0.4173 C.ar      1 <0>        -0.1144
      6 C6         -6.6845    9.2207    1.1467 C.ar      1 <0>        -0.0196
      7 N1         -6.5108    8.7683    2.3741 N.ar      1 <0>        -0.1487
      8 C7         -5.8415   10.2417   -0.9809 C.3       1 <0>         0.0417
      9 O1         -7.2217   10.1165   -1.3294 O.3       1 <0>        -0.3560
     10 C8         -3.1892   10.2571    0.2491 C.2       1 <0>        -0.1364
     11 N2         -2.1402    9.5120    0.0787 N.2       1 <0>         0.0501
     12 N3         -2.1601    8.1712    0.4846 N.am      1 <0>        -0.3249
     13 C9         -1.1069    7.3721    0.2223 C.2       1 <0>         0.3184
     14 O2         -0.1418    7.8138   -0.3650 O.2       1 <0>        -0.2847
     15 C10        -1.1283    5.9298    0.6589 C.3       1 <0>        -0.0227
     16 H1         -1.3114    5.8727    1.7318 H         1 <0>         0.1215
     17 C11        -2.2328    5.1771   -0.0954 C.3       1 <0>        -0.0436
     18 O3         -2.2160    3.8108    0.3321 O.3       1 <0>        -0.2021
     19 C12        -0.9994    3.2035    0.3912 C.ar      1 <0>         0.0111
     20 C13        -0.9310    1.8188    0.4346 C.ar      1 <0>        -0.1205
     21 C14         0.2966    1.1881    0.5038 C.ar      1 <0>        -0.1294
     22 C15         1.4601    1.9347    0.5192 C.ar      1 <0>        -0.1276
     23 C16         1.3993    3.3145    0.4701 C.ar      1 <0>        -0.1169
     24 C17         0.1702    3.9540    0.4047 C.ar      1 <0>         0.0201
     25 O4          0.1263    5.3132    0.3496 O.3       1 <0>        -0.1708
     26 O5         -2.9951    9.2410    2.9111 O.3       1 <0>        -0.2851
     27 H2         -5.3482    9.0472    5.0760 H         1 <0>         0.0943
     28 H3         -5.9460    7.4611    4.5327 H         1 <0>         0.1049
     29 H4         -4.2015    7.8131    4.5011 H         1 <0>         0.0976
     30 H5         -7.6713    9.2025    0.7083 H         1 <0>         0.1910
     31 H6         -5.5488   11.2907   -1.0275 H         1 <0>         0.0747
     32 H7         -5.2365    9.6643   -1.6799 H         1 <0>         0.0798
     33 H8         -7.4331   10.4325   -2.2185 H         1 <0>         0.2225
     34 H9         -3.2112   11.2588   -0.1542 H         1 <0>         0.1884
     35 H10        -2.9318    7.8180    0.9542 H         1 <0>         0.2245
     36 H11        -2.0464    5.2290   -1.1681 H         1 <0>         0.1067
     37 H12        -3.2020    5.6214    0.1312 H         1 <0>         0.1191
     38 H13        -1.8383    1.2332    0.4188 H         1 <0>         0.1447
     39 H14         0.3474    0.1099    0.5413 H         1 <0>         0.1355
     40 H15         2.4182    1.4388    0.5702 H         1 <0>         0.1364
     41 H16         2.3097    3.8954    0.4830 H         1 <0>         0.1498
     42 H17        -2.7691   10.0759    3.3436 H         1 <0>         0.2399
@<TRIPOS>BOND
     1    1    2 1
     2    1   27 1
     3    1   28 1
     4    1   29 1
     5    2    7 ar
     6    2    3 ar
     7    3    4 ar
     8    3   26 1
     9    4    5 ar
    10    4   10 1
    11    5    6 ar
    12    5    8 1
    13    6    7 ar
    14    6   30 1
    15    8    9 1
    16    8   31 1
    17    8   32 1
    18    9   33 1
    19   10   11 2
    20   10   34 1
    21   11   12 1
    22   12   13 am
    23   12   35 1
    24   13   14 2
    25   13   15 1
    26   15   16 1
    27   15   25 1
    28   15   17 1
    29   17   18 1
    30   17   36 1
    31   17   37 1
    32   18   19 1
    33   19   24 ar
    34   19   20 ar
    35   20   21 ar
    36   20   38 1
    37   21   22 ar
    38   21   39 1
    39   22   23 ar
    40   22   40 1
    41   23   24 ar
    42   23   41 1
    43   24   25 1
    44   26   42 1
@<TRIPOS>MOLECULE
ZINC03867987
   42    44     0     0     0
SMALL
USER_CHARGES

@<TRIPOS>ATOM
      1 C1          0.3011    2.3437   -1.8365 C.3       1 <0>        -0.1627
      2 C2          0.7727    1.4391   -0.7274 C.ar      1 <0>        -0.0138
      3 C3          2.0056    0.8157   -0.8307 C.ar      1 <0>         0.0034
      4 C4          2.4300   -0.0250    0.2123 C.ar      1 <0>        -0.0914
      5 C5          1.5789   -0.1918    1.3124 C.ar      1 <0>        -0.1139
      6 C6          0.3691    0.4691    1.3290 C.ar      1 <0>        -0.0187
      7 N1          0.0066    1.2504    0.3292 N.ar      1 <0>        -0.1486
      8 C7          1.9802   -1.0806    2.4614 C.3       1 <0>         0.0416
      9 O1          0.9463   -1.0797    3.4479 O.3       1 <0>        -0.3562
     10 C8          3.7331   -0.7109    0.1508 C.2       1 <0>        -0.1349
     11 N2          4.8204   -0.0241   -0.0243 N.2       1 <0>         0.0510
     12 N3          4.7738    1.3761   -0.0137 N.am      1 <0>        -0.3243
     13 C9          5.9111    2.0891   -0.1349 C.2       1 <0>         0.3185
     14 O2          6.9628    1.5223   -0.3449 O.2       1 <0>        -0.2845
     15 C10         5.8761    3.5905   -0.0097 C.3       1 <0>        -0.0227
     16 H1          5.3941    3.8700    0.9271 H         1 <0>         0.1163
     17 C11         5.1010    4.1904   -1.1907 C.3       1 <0>        -0.0436
     18 O3          5.0987    5.6151   -1.0475 O.3       1 <0>        -0.2036
     19 C12         6.2888    6.2008   -0.7420 C.ar      1 <0>         0.0120
     20 C13         6.4460    7.5650   -0.9371 C.ar      1 <0>        -0.1212
     21 C14         7.6462    8.1751   -0.6258 C.ar      1 <0>        -0.1293
     22 C15         8.6932    7.4279   -0.1191 C.ar      1 <0>        -0.1281
     23 C16         8.5436    6.0680    0.0766 C.ar      1 <0>        -0.1170
     24 C17         7.3420    5.4492   -0.2350 C.ar      1 <0>         0.0197
     25 O4          7.2104    4.1087   -0.0396 O.3       1 <0>        -0.1713
     26 O5          2.7906    1.0137   -1.9213 O.3       1 <0>        -0.2867
     27 H2          0.6313    3.3635   -1.6389 H         1 <0>         0.1008
     28 H3          0.7182    2.0041   -2.7846 H         1 <0>         0.0851
     29 H4         -0.7874    2.3179   -1.8884 H         1 <0>         0.1041
     30 H5         -0.2923    0.3458    2.1738 H         1 <0>         0.1912
     31 H6          2.1348   -2.0966    2.0981 H         1 <0>         0.0748
     32 H7          2.9044   -0.7081    2.9033 H         1 <0>         0.0807
     33 H8          1.1372   -1.6322    4.2182 H         1 <0>         0.2226
     34 H9          3.7832   -1.7850    0.2515 H         1 <0>         0.1884
     35 H10         3.9231    1.8324    0.0809 H         1 <0>         0.2233
     36 H11         5.5868    3.9154   -2.1269 H         1 <0>         0.1092
     37 H12         4.0763    3.8188   -1.1846 H         1 <0>         0.1247
     38 H13         5.6295    8.1510   -1.3324 H         1 <0>         0.1444
     39 H14         7.7664    9.2375   -0.7782 H         1 <0>         0.1353
     40 H15         9.6297    7.9077    0.1243 H         1 <0>         0.1363
     41 H16         9.3630    5.4866    0.4728 H         1 <0>         0.1495
     42 H17         2.5849    0.4309   -2.6650 H         1 <0>         0.2394
@<TRIPOS>BOND
     1    1    2 1
     2    1   27 1
     3    1   28 1
     4    1   29 1
     5    2    7 ar
     6    2    3 ar
     7    3    4 ar
     8    3   26 1
     9    4    5 ar
    10    4   10 1
    11    5    6 ar
    12    5    8 1
    13    6    7 ar
    14    6   30 1
    15    8    9 1
    16    8   31 1
    17    8   32 1
    18    9   33 1
    19   10   11 2
    20   10   34 1
    21   11   12 1
    22   12   13 am
    23   12   35 1
    24   13   14 2
    25   13   15 1
    26   15   16 1
    27   15   25 1
    28   15   17 1
    29   17   18 1
    30   17   36 1
    31   17   37 1
    32   18   19 1
    33   19   24 ar
    34   19   20 ar
    35   20   21 ar
    36   20   38 1
    37   21   22 ar
    38   21   39 1
    39   22   23 ar
    40   22   40 1
    41   23   24 ar
    42   23   41 1
    43   24   25 1
    44   26   42 1
@<TRIPOS>MOLECULE
ZINC03868281
   42    44     0     0     0
SMALL
USER_CHARGES

@<TRIPOS>ATOM
      1 C1          0.6091    0.4276    0.4875 C.3       1 <0>        -0.2034
      2 C2         -0.1360    1.0264    1.6821 C.3       1 <0>         0.0747
      3 C3         -1.6157    0.7069    1.6025 C.2       1 <0>         0.3253
      4 O1         -2.3906    1.0380    0.7307 O.2       1 <0>        -0.2839
      5 N1         -1.8909   -0.0211    2.7028 N.am      1 <0>        -0.2800
      6 C4         -0.8022   -0.2039    3.4586 C.2       1 <0>         0.4006
      7 O2         -0.8007   -0.8286    4.5013 O.2       1 <0>        -0.3602
      8 N2          0.2906    0.3809    2.9357 N.am      1 <0>        -0.3952
      9 N3         -3.1602   -0.5248    3.0160 N.2       1 <0>        -0.0091
     10 C5         -3.7293   -0.1990    4.1358 C.2       1 <0>        -0.0177
     11 C6         -3.2356    0.9581    4.9043 C.ar      1 <0>        -0.1172
     12 C7         -2.2789    1.8118    4.3486 C.ar      1 <0>        -0.1095
     13 C8         -1.8253    2.8959    5.0680 C.ar      1 <0>        -0.1517
     14 C9         -2.3080    3.1336    6.3486 C.ar      1 <0>         0.0934
     15 C10        -3.2545    2.2841    6.9073 C.ar      1 <0>        -0.1586
     16 C11        -3.7188    1.2013    6.1928 C.ar      1 <0>        -0.0770
     17 O3         -1.8535    4.2000    7.0565 O.3       1 <0>        -0.2925
     18 C12         0.0851    2.5155    1.7506 C.ar      1 <0>        -0.1447
     19 C13        -0.7830    3.3728    1.1002 C.ar      1 <0>        -0.0769
     20 C14        -0.5857    4.7385    1.1661 C.ar      1 <0>        -0.2165
     21 C15         0.4909    5.2491    1.8767 C.ar      1 <0>         0.1080
     22 C16         1.3638    4.3865    2.5238 C.ar      1 <0>        -0.1622
     23 C17         1.1591    3.0219    2.4591 C.ar      1 <0>        -0.0757
     24 O4          0.6904    6.5920    1.9385 O.3       1 <0>        -0.2092
     25 C18        -0.2481    7.4197    1.2484 C.3       1 <0>        -0.0647
     26 H1          0.4070   -0.6421    0.4324 H         1 <0>         0.0939
     27 H2          1.6801    0.5892    0.6092 H         1 <0>         0.0902
     28 H3          0.2709    0.9090   -0.4301 H         1 <0>         0.1055
     29 H4          1.1850    0.3784    3.3111 H         1 <0>         0.2757
     30 H5         -4.5647   -0.7756    4.5048 H         1 <0>         0.1869
     31 H6         -1.8992    1.6248    3.3550 H         1 <0>         0.1517
     32 H7         -1.0894    3.5590    4.6375 H         1 <0>         0.1482
     33 H8         -3.6274    2.4729    7.9032 H         1 <0>         0.1436
     34 H9         -4.4552    0.5418    6.6277 H         1 <0>         0.1362
     35 H10        -1.0754    4.0098    7.5981 H         1 <0>         0.2324
     36 H11        -1.6184    2.9747    0.5434 H         1 <0>         0.1650
     37 H12        -1.2668    5.4080    0.6618 H         1 <0>         0.1432
     38 H13         2.2028    4.7816    3.0774 H         1 <0>         0.1477
     39 H14         1.8383    2.3499    2.9627 H         1 <0>         0.1302
     40 H15        -0.2403    7.1709    0.1872 H         1 <0>         0.0701
     41 H16        -1.2462    7.2529    1.6533 H         1 <0>         0.0722
     42 H17         0.0265    8.4665    1.3782 H         1 <0>         0.1114
@<TRIPOS>BOND
     1    1    2 1
     2    1   26 1
     3    1   27 1
     4    1   28 1
     5    2    8 1
     6    2    3 1
     7    2   18 1
     8    3    4 2
     9    3    5 am
    10    5    6 am
    11    5    9 1
    12    6    7 2
    13    6    8 am
    14    8   29 1
    15    9   10 2
    16   10   11 1
    17   10   30 1
    18   11   16 ar
    19   11   12 ar
    20   12   13 ar
    21   12   31 1
    22   13   14 ar
    23   13   32 1
    24   14   15 ar
    25   14   17 1
    26   15   16 ar
    27   15   33 1
    28   16   34 1
    29   17   35 1
    30   18   23 ar
    31   18   19 ar
    32   19   20 ar
    33   19   36 1
    34   20   21 ar
    35   20   37 1
    36   21   22 ar
    37   21   24 1
    38   22   23 ar
    39   22   38 1
    40   23   39 1
    41   24   25 1
    42   25   40 1
    43   25   41 1
    44   25   42 1
@<TRIPOS>MOLECULE
ZINC03868283
   46    48     0     0     0
SMALL
USER_CHARGES

@<TRIPOS>ATOM
      1 C1          0.2045   -0.8189    1.7373 C.3       1 <0>        -0.2042
      2 C2          0.7577   -0.2853    0.4144 C.3       1 <0>         0.0752
      3 C3          0.4302    1.1860    0.2542 C.2       1 <0>         0.3257
      4 O1         -0.6716    1.6887    0.1937 O.2       1 <0>        -0.2867
      5 N1          1.6183    1.8186    0.1871 N.am      1 <0>        -0.2806
      6 C4          2.6403    0.9603    0.2816 C.2       1 <0>         0.4014
      7 O2          3.8084    1.2943    0.2469 O.2       1 <0>        -0.3566
      8 N2          2.2305   -0.3136    0.4194 N.am      1 <0>        -0.3938
      9 N3          1.7651    3.2036    0.0359 N.2       1 <0>        -0.0048
     10 C5          2.4238    3.6797   -0.9758 C.2       1 <0>        -0.0211
     11 C6          2.7051    2.8224   -2.1415 C.ar      1 <0>        -0.0774
     12 C7          2.1091    1.5629   -2.2447 C.ar      1 <0>        -0.1488
     13 C8          2.3735    0.7625   -3.3359 C.ar      1 <0>        -0.1178
     14 C9          3.2309    1.2047   -4.3332 C.ar      1 <0>         0.0645
     15 C10         3.8284    2.4596   -4.2372 C.ar      1 <0>         0.0692
     16 C11         3.5639    3.2697   -3.1489 C.ar      1 <0>        -0.1766
     17 O3          4.6674    2.8899   -5.2171 O.3       1 <0>        -0.1986
     18 C12         5.2447    4.1869   -5.0537 C.3       1 <0>        -0.0664
     19 O4          3.4881    0.4117   -5.4067 O.3       1 <0>        -0.2754
     20 C13         0.2161   -1.0785   -0.7469 C.ar      1 <0>        -0.1436
     21 C14        -0.9290   -0.6565   -1.3967 C.ar      1 <0>        -0.0793
     22 C15        -1.4243   -1.3788   -2.4651 C.ar      1 <0>        -0.2191
     23 C16        -0.7779   -2.5344   -2.8789 C.ar      1 <0>         0.1055
     24 C17         0.3678   -2.9588   -2.2216 C.ar      1 <0>        -0.1599
     25 C18         0.8620   -2.2302   -1.1571 C.ar      1 <0>        -0.0732
     26 O5         -1.2663   -3.2497   -3.9261 O.3       1 <0>        -0.2091
     27 C19        -2.4494   -2.7534   -4.5553 C.3       1 <0>        -0.0643
     28 H1         -0.8795   -0.7056    1.7500 H         1 <0>         0.1056
     29 H2          0.4608   -1.8735    1.8393 H         1 <0>         0.0908
     30 H3          0.6382   -0.2580    2.5651 H         1 <0>         0.0939
     31 H4          2.7948   -1.0979    0.5050 H         1 <0>         0.2771
     32 H5          2.7659    4.7040   -0.9637 H         1 <0>         0.1857
     33 H6          1.4416    1.2161   -1.4697 H         1 <0>         0.1520
     34 H7          1.9125   -0.2110   -3.4143 H         1 <0>         0.1524
     35 H8          4.0230    4.2446   -3.0755 H         1 <0>         0.1414
     36 H9          4.4521    4.9330   -4.9983 H         1 <0>         0.0646
     37 H10         5.8308    4.2106   -4.1350 H         1 <0>         0.0724
     38 H11         5.8916    4.4063   -5.9031 H         1 <0>         0.1122
     39 H12         2.8786    0.5410   -6.1462 H         1 <0>         0.2276
     40 H13        -1.4344    0.2408   -1.0714 H         1 <0>         0.1652
     41 H14        -2.3161   -1.0461   -2.9754 H         1 <0>         0.1419
     42 H15         0.8726   -3.8584   -2.5416 H         1 <0>         0.1494
     43 H16         1.7538   -2.5602   -0.6450 H         1 <0>         0.1323
     44 H17        -3.2586   -2.7119   -3.8261 H         1 <0>         0.0709
     45 H18        -2.2609   -1.7535   -4.9461 H         1 <0>         0.0693
     46 H19        -2.7312   -3.4162   -5.3735 H         1 <0>         0.1112
@<TRIPOS>BOND
     1    1    2 1
     2    1   28 1
     3    1   29 1
     4    1   30 1
     5    2    8 1
     6    2    3 1
     7    2   20 1
     8    3    4 2
     9    3    5 am
    10    5    6 am
    11    5    9 1
    12    6    7 2
    13    6    8 am
    14    8   31 1
    15    9   10 2
    16   10   11 1
    17   10   32 1
    18   11   16 ar
    19   11   12 ar
    20   12   13 ar
    21   12   33 1
    22   13   14 ar
    23   13   34 1
    24   14   15 ar
    25   14   19 1
    26   15   16 ar
    27   15   17 1
    28   16   35 1
    29   17   18 1
    30   18   36 1
    31   18   37 1
    32   18   38 1
    33   19   39 1
    34   20   25 ar
    35   20   21 ar
    36   21   22 ar
    37   21   40 1
    38   22   23 ar
    39   22   41 1
    40   23   24 ar
    41   23   26 1
    42   24   25 ar
    43   24   42 1
    44   25   43 1
    45   26   27 1
    46   27   44 1
    47   27   45 1
    48   27   46 1
@<TRIPOS>MOLECULE
ZINC03868287
   43    45     0     0     0
SMALL
USER_CHARGES

@<TRIPOS>ATOM
      1 C1          1.1070   -0.1466    1.1153 C.3       1 <0>        -0.2036
      2 C2          0.2093    0.6308    2.0800 C.3       1 <0>         0.0762
      3 C3         -1.2497    0.3019    1.8332 C.2       1 <0>         0.3274
      4 O1         -1.8816    0.4927    0.8160 O.2       1 <0>        -0.2839
      5 N1         -1.6988   -0.2457    2.9798 N.am      1 <0>        -0.2817
      6 C4         -0.7363   -0.3079    3.9071 C.2       1 <0>         0.4005
      7 O2         -0.9009   -0.7623    5.0223 O.2       1 <0>        -0.3707
      8 N2          0.4340    0.1888    3.4672 N.am      1 <0>        -0.3945
      9 N3         -3.0111   -0.6951    3.1763 N.2       1 <0>        -0.0071
     10 C5         -3.7307   -0.1980    4.1357 C.2       1 <0>        -0.0173
     11 C6         -3.2369    0.9576    4.9038 C.ar      1 <0>        -0.1453
     12 C7         -2.2843    1.8150    4.3465 C.ar      1 <0>        -0.0892
     13 C8         -1.8290    2.8976    5.0662 C.ar      1 <0>        -0.1627
     14 C9         -2.3056    3.1348    6.3504 C.ar      1 <0>         0.1062
     15 C10        -3.2470    2.2864    6.9147 C.ar      1 <0>        -0.1812
     16 C11        -3.7164    1.1986    6.1994 C.ar      1 <0>         0.1251
     17 O3         -4.6385    0.3678    6.7501 O.3       1 <0>        -0.2932
     18 O4         -1.8474    4.2013    7.0557 O.3       1 <0>        -0.2896
     19 C12         0.4515    2.1125    1.9498 C.ar      1 <0>        -0.1444
     20 C13        -0.2930    2.8574    1.0540 C.ar      1 <0>        -0.0779
     21 C14        -0.0768    4.2168    0.9368 C.ar      1 <0>        -0.2165
     22 C15         0.8959    4.8325    1.7111 C.ar      1 <0>         0.1081
     23 C16         1.6454    4.0819    2.6051 C.ar      1 <0>        -0.1619
     24 C17         1.4218    2.7237    2.7223 C.ar      1 <0>        -0.0759
     25 O5          1.1143    6.1687    1.5937 O.3       1 <0>        -0.2092
     26 C18         0.3053    6.8782    0.6533 C.3       1 <0>        -0.0647
     27 H1          0.8911   -1.2119    1.1966 H         1 <0>         0.0939
     28 H2          2.1522    0.0326    1.3672 H         1 <0>         0.0903
     29 H3          0.9171    0.1857    0.0947 H         1 <0>         0.1058
     30 H4          1.2638    0.2454    3.9663 H         1 <0>         0.2747
     31 H5         -4.6915   -0.6318    4.3706 H         1 <0>         0.1970
     32 H6         -1.9085    1.6313    3.3508 H         1 <0>         0.1479
     33 H7         -1.0962    3.5621    4.6329 H         1 <0>         0.1492
     34 H8         -3.6140    2.4751    7.9127 H         1 <0>         0.1545
     35 H9         -4.2594   -0.4124    7.1775 H         1 <0>         0.2405
     36 H10        -1.0658    4.0114    7.5925 H         1 <0>         0.2332
     37 H11        -1.0471    2.3768    0.4483 H         1 <0>         0.1651
     38 H12        -0.6619    4.7991    0.2404 H         1 <0>         0.1434
     39 H13         2.4034    4.5588    3.2088 H         1 <0>         0.1477
     40 H14         2.0050    2.1389    3.4181 H         1 <0>         0.1298
     41 H15         0.4622    6.4670   -0.3439 H         1 <0>         0.0704
     42 H16        -0.7447    6.7760    0.9274 H         1 <0>         0.0719
     43 H17         0.5815    7.9326    0.6591 H         1 <0>         0.1117
@<TRIPOS>BOND
     1    1    2 1
     2    1   27 1
     3    1   28 1
     4    1   29 1
     5    2    8 1
     6    2    3 1
     7    2   19 1
     8    3    4 2
     9    3    5 am
    10    5    6 am
    11    5    9 1
    12    6    7 2
    13    6    8 am
    14    8   30 1
    15    9   10 2
    16   10   11 1
    17   10   31 1
    18   11   16 ar
    19   11   12 ar
    20   12   13 ar
    21   12   32 1
    22   13   14 ar
    23   13   33 1
    24   14   15 ar
    25   14   18 1
    26   15   16 ar
    27   15   34 1
    28   16   17 1
    29   17   35 1
    30   18   36 1
    31   19   24 ar
    32   19   20 ar
    33   20   21 ar
    34   20   37 1
    35   21   22 ar
    36   21   38 1
    37   22   23 ar
    38   22   25 1
    39   23   24 ar
    40   23   39 1
    41   24   40 1
    42   25   26 1
    43   26   41 1
    44   26   42 1
    45   26   43 1
@<TRIPOS>MOLECULE
ZINC03868288
   43    45     0     0     0
SMALL
USER_CHARGES

@<TRIPOS>ATOM
      1 C1          0.1761    6.2178    0.4551 C.3       1 <0>        -0.2079
      2 C2          0.5822    5.1146   -0.5243 C.3       1 <0>         0.0763
      3 C3         -0.4892    4.0456   -0.6090 C.2       1 <0>         0.3274
      4 O1         -1.6356    4.1853   -0.9784 O.2       1 <0>        -0.2836
      5 N1          0.0971    2.9080   -0.1868 N.am      1 <0>        -0.2822
      6 C4          1.3787    3.1061    0.1425 C.2       1 <0>         0.4011
      7 O2          2.1158    2.2283    0.5469 O.2       1 <0>        -0.3697
      8 N2          1.7602    4.3853   -0.0240 N.am      1 <0>        -0.3946
      9 N3         -0.5534    1.6696   -0.1080 N.2       1 <0>        -0.0043
     10 C5         -0.6323    1.0490    1.0296 C.2       1 <0>        -0.0168
     11 C6         -0.1932    1.7186    2.2657 C.ar      1 <0>        -0.1353
     12 C7         -0.1310    3.1135    2.3239 C.ar      1 <0>        -0.0944
     13 C8          0.2760    3.7359    3.4833 C.ar      1 <0>        -0.1669
     14 C9          0.6349    2.9808    4.5940 C.ar      1 <0>         0.1083
     15 C10         0.5817    1.5955    4.5447 C.ar      1 <0>        -0.1860
     16 C11         0.1697    0.9587    3.3872 C.ar      1 <0>         0.1262
     17 O3          0.1166   -0.3972    3.3375 O.3       1 <0>        -0.2927
     18 O4          1.0398    3.6021    5.7320 O.3       1 <0>        -0.2898
     19 C12         0.8568    5.6935   -1.8883 C.ar      1 <0>        -0.1389
     20 C13        -0.1717    5.8216   -2.8035 C.ar      1 <0>        -0.0724
     21 C14         0.0764    6.3572   -4.0525 C.ar      1 <0>        -0.2170
     22 C15         1.3611    6.7557   -4.3924 C.ar      1 <0>         0.1079
     23 C16         2.3924    6.6209   -3.4743 C.ar      1 <0>        -0.1594
     24 C17         2.1379    6.0904   -2.2244 C.ar      1 <0>        -0.0728
     25 O5          1.6089    7.2769   -5.6227 O.3       1 <0>        -0.2101
     26 C18         0.4993    7.3862   -6.5166 C.3       1 <0>        -0.0642
     27 H1          0.9970    6.9264    0.5649 H         1 <0>         0.0930
     28 H2         -0.7033    6.7367    0.0736 H         1 <0>         0.1079
     29 H3         -0.0547    5.7761    1.4245 H         1 <0>         0.0847
     30 H4          2.6397    4.7552    0.1508 H         1 <0>         0.2748
     31 H5         -1.0158    0.0402    1.0689 H         1 <0>         0.1989
     32 H6         -0.4051    3.7032    1.4616 H         1 <0>         0.1474
     33 H7          0.3198    4.8141    3.5285 H         1 <0>         0.1428
     34 H8          0.8622    1.0136    5.4102 H         1 <0>         0.1544
     35 H9          0.9591   -0.8158    3.1137 H         1 <0>         0.2414
     36 H10         1.9928    3.7600    5.7762 H         1 <0>         0.2338
     37 H11        -1.1705    5.5065   -2.5402 H         1 <0>         0.1638
     38 H12        -0.7280    6.4608   -4.7656 H         1 <0>         0.1418
     39 H13         3.3934    6.9300   -3.7366 H         1 <0>         0.1471
     40 H14         2.9404    5.9852   -1.5093 H         1 <0>         0.1284
     41 H15         0.0792    6.3967   -6.6969 H         1 <0>         0.0717
     42 H16        -0.2617    8.0289   -6.0741 H         1 <0>         0.0695
     43 H17         0.8341    7.8163   -7.4605 H         1 <0>         0.1103
@<TRIPOS>BOND
     1    1    2 1
     2    1   27 1
     3    1   28 1
     4    1   29 1
     5    2    8 1
     6    2    3 1
     7    2   19 1
     8    3    4 2
     9    3    5 am
    10    5    6 am
    11    5    9 1
    12    6    7 2
    13    6    8 am
    14    8   30 1
    15    9   10 2
    16   10   11 1
    17   10   31 1
    18   11   16 ar
    19   11   12 ar
    20   12   13 ar
    21   12   32 1
    22   13   14 ar
    23   13   33 1
    24   14   15 ar
    25   14   18 1
    26   15   16 ar
    27   15   34 1
    28   16   17 1
    29   17   35 1
    30   18   36 1
    31   19   24 ar
    32   19   20 ar
    33   20   21 ar
    34   20   37 1
    35   21   22 ar
    36   21   38 1
    37   22   23 ar
    38   22   25 1
    39   23   24 ar
    40   23   39 1
    41   24   40 1
    42   25   26 1
    43   26   41 1
    44   26   42 1
    45   26   43 1
@<TRIPOS>MOLECULE
ZINC03868295
   46    48     0     0     0
SMALL
USER_CHARGES

@<TRIPOS>ATOM
      1 C1         -1.0903    0.4309   -0.4092 C.3       1 <0>        -0.2078
      2 C2         -0.1061    0.9251    0.6529 C.3       1 <0>         0.0772
      3 C3          0.0364    2.4329    0.5907 C.2       1 <0>         0.3287
      4 O1         -0.8342    3.2587    0.7649 O.2       1 <0>        -0.2859
      5 N1          1.3309    2.6647    0.2961 N.am      1 <0>        -0.2811
      6 C4          2.0199    1.5248    0.1694 C.2       1 <0>         0.4025
      7 O2          3.2055    1.4777   -0.0942 O.2       1 <0>        -0.3679
      8 N2          1.2539    0.4367    0.3665 N.am      1 <0>        -0.3939
      9 N3          1.8863    3.9415    0.1408 N.2       1 <0>         0.0006
     10 C5          2.4649    4.2662   -0.9746 C.2       1 <0>        -0.0208
     11 C6          2.3843    3.3633   -2.1366 C.ar      1 <0>        -0.0946
     12 C7          1.3419    2.4371   -2.2354 C.ar      1 <0>        -0.1477
     13 C8          1.2673    1.5977   -3.3263 C.ar      1 <0>        -0.0999
     14 C9          2.2269    1.6590   -4.3225 C.ar      1 <0>        -0.1916
     15 C10         3.2688    2.5684   -4.2354 C.ar      1 <0>         0.0766
     16 C11         3.3544    3.4250   -3.1440 C.ar      1 <0>         0.0834
     17 O3          4.3745    4.3183   -3.0556 O.3       1 <0>        -0.2794
     18 O4          4.2075    2.6231   -5.2180 O.3       1 <0>        -0.1965
     19 C12         4.0575    1.7136   -6.3099 C.3       1 <0>        -0.0657
     20 C13        -0.5462    0.4926    2.0277 C.ar      1 <0>        -0.1382
     21 C14        -1.3998    1.2941    2.7631 C.ar      1 <0>        -0.0727
     22 C15        -1.8093    0.8971    4.0213 C.ar      1 <0>        -0.2173
     23 C16        -1.3538   -0.3011    4.5518 C.ar      1 <0>         0.1074
     24 C17        -0.4929   -1.1008    3.8142 C.ar      1 <0>        -0.1595
     25 C18        -0.0913   -0.7023    2.5540 C.ar      1 <0>        -0.0727
     26 O5         -1.7500   -0.6907    5.7920 O.3       1 <0>        -0.2103
     27 C19        -2.6373    0.1824    6.4938 C.3       1 <0>        -0.0642
     28 H1         -1.1099   -0.6589   -0.4074 H         1 <0>         0.0925
     29 H2         -2.0868    0.8126   -0.1868 H         1 <0>         0.1068
     30 H3         -0.7754    0.7870   -1.3901 H         1 <0>         0.0850
     31 H4          1.5402   -0.4891    0.3241 H         1 <0>         0.2751
     32 H5          3.0055    5.1980   -1.0512 H         1 <0>         0.1988
     33 H6          0.5929    2.3821   -1.4593 H         1 <0>         0.1424
     34 H7          0.4586    0.8858   -3.4022 H         1 <0>         0.1326
     35 H8          2.1629    0.9949   -5.1718 H         1 <0>         0.1403
     36 H9          5.1262    4.0065   -2.5334 H         1 <0>         0.2368
     37 H10         4.0838    0.6899   -5.9364 H         1 <0>         0.0676
     38 H11         3.1038    1.8951   -6.8055 H         1 <0>         0.0688
     39 H12         4.8704    1.8620   -7.0208 H         1 <0>         0.1127
     40 H13        -1.7501    2.2293    2.3517 H         1 <0>         0.1636
     41 H14        -2.4792    1.5216    4.5937 H         1 <0>         0.1415
     42 H15        -0.1367   -2.0339    4.2251 H         1 <0>         0.1469
     43 H16         0.5789   -1.3245    1.9794 H         1 <0>         0.1288
     44 H17        -2.1597    1.1527    6.6302 H         1 <0>         0.0716
     45 H18        -3.5549    0.3068    5.9187 H         1 <0>         0.0693
     46 H19        -2.8740   -0.2462    7.4676 H         1 <0>         0.1101
@<TRIPOS>BOND
     1    1    2 1
     2    1   28 1
     3    1   29 1
     4    1   30 1
     5    2    8 1
     6    2    3 1
     7    2   20 1
     8    3    4 2
     9    3    5 am
    10    5    6 am
    11    5    9 1
    12    6    7 2
    13    6    8 am
    14    8   31 1
    15    9   10 2
    16   10   11 1
    17   10   32 1
    18   11   16 ar
    19   11   12 ar
    20   12   13 ar
    21   12   33 1
    22   13   14 ar
    23   13   34 1
    24   14   15 ar
    25   14   35 1
    26   15   16 ar
    27   15   18 1
    28   16   17 1
    29   17   36 1
    30   18   19 1
    31   19   37 1
    32   19   38 1
    33   19   39 1
    34   20   25 ar
    35   20   21 ar
    36   21   22 ar
    37   21   40 1
    38   22   23 ar
    39   22   41 1
    40   23   24 ar
    41   23   26 1
    42   24   25 ar
    43   24   42 1
    44   25   43 1
    45   26   27 1
    46   27   44 1
    47   27   45 1
    48   27   46 1
@<TRIPOS>MOLECULE
ZINC03868297
   46    48     0     0     0
SMALL
USER_CHARGES

@<TRIPOS>ATOM
      1 C1          1.1006   -0.1467    1.1030 C.3       1 <0>        -0.2041
      2 C2          0.1968    0.6403    2.0542 C.3       1 <0>         0.0774
      3 C3         -1.2597    0.2970    1.8122 C.2       1 <0>         0.3297
      4 O1         -1.8923    0.4662    0.7917 O.2       1 <0>        -0.2859
      5 N1         -1.7055   -0.2345    2.9676 N.am      1 <0>        -0.2827
      6 C4         -0.7432   -0.2743    3.8962 C.2       1 <0>         0.4025
      7 O2         -0.9052   -0.7112    5.0188 O.2       1 <0>        -0.3720
      8 N2          0.4238    0.2233    3.4486 N.am      1 <0>        -0.3910
      9 N3         -3.0148   -0.6900    3.1709 N.2       1 <0>        -0.0028
     10 C5         -3.7305   -0.1981    4.1354 C.2       1 <0>        -0.0210
     11 C6         -3.2364    0.9582    4.9039 C.ar      1 <0>        -0.0945
     12 C7         -2.2843    1.8156    4.3475 C.ar      1 <0>        -0.1392
     13 C8         -1.8287    2.9017    5.0729 C.ar      1 <0>         0.0897
     14 C9         -2.3080    3.1351    6.3555 C.ar      1 <0>        -0.1887
     15 C10        -3.2456    2.2882    6.9148 C.ar      1 <0>        -0.1127
     16 C11        -3.7151    1.1996    6.1984 C.ar      1 <0>         0.0707
     17 O3         -4.6377    0.3683    6.7495 O.3       1 <0>        -0.2934
     18 O4         -0.9057    3.7403    4.5308 O.3       1 <0>        -0.2039
     19 C12        -0.4749    4.8390    5.3366 C.3       1 <0>        -0.0660
     20 C13         0.4285    2.1213    1.8993 C.ar      1 <0>        -0.1369
     21 C14        -0.3207    2.8459    0.9908 C.ar      1 <0>        -0.0742
     22 C15        -0.1141    4.2046    0.8510 C.ar      1 <0>        -0.2135
     23 C16         0.8537    4.8401    1.6154 C.ar      1 <0>         0.1060
     24 C17         1.6080    4.1099    2.5222 C.ar      1 <0>        -0.1603
     25 C18         1.3940    2.7523    2.6620 C.ar      1 <0>        -0.0604
     26 O5          1.0627    6.1757    1.4757 O.3       1 <0>        -0.2152
     27 C19         0.2493    6.8635    0.5232 C.3       1 <0>        -0.0639
     28 H1          0.8922   -1.2120    1.2021 H         1 <0>         0.0924
     29 H2          2.1443    0.0442    1.3524 H         1 <0>         0.0896
     30 H3          0.9090    0.1671    0.0769 H         1 <0>         0.1050
     31 H4          1.2529    0.2941    3.9471 H         1 <0>         0.2749
     32 H5         -4.6881   -0.6363    4.3748 H         1 <0>         0.1977
     33 H6         -1.9075    1.6330    3.3520 H         1 <0>         0.1567
     34 H7         -1.9458    3.9825    6.9185 H         1 <0>         0.1398
     35 H8         -3.6135    2.4757    7.9127 H         1 <0>         0.1446
     36 H9         -4.2587   -0.4119    7.1769 H         1 <0>         0.2346
     37 H10        -1.3315    5.4664    5.5833 H         1 <0>         0.0684
     38 H11        -0.0244    4.4617    6.2546 H         1 <0>         0.0668
     39 H12         0.2597    5.4271    4.7864 H         1 <0>         0.1146
     40 H13        -1.0709    2.3499    0.3928 H         1 <0>         0.1623
     41 H14        -0.7029    4.7710    0.1446 H         1 <0>         0.1399
     42 H15         2.3623    4.6022    3.1181 H         1 <0>         0.1414
     43 H16         1.9809    2.1833    3.3678 H         1 <0>         0.1275
     44 H17         0.4097    6.4369   -0.4669 H         1 <0>         0.0705
     45 H18        -0.8001    6.7585    0.7985 H         1 <0>         0.0709
     46 H19         0.5179    7.9198    0.5115 H         1 <0>         0.1085
@<TRIPOS>BOND
     1    1    2 1
     2    1   28 1
     3    1   29 1
     4    1   30 1
     5    2    8 1
     6    2    3 1
     7    2   20 1
     8    3    4 2
     9    3    5 am
    10    5    6 am
    11    5    9 1
    12    6    7 2
    13    6    8 am
    14    8   31 1
    15    9   10 2
    16   10   11 1
    17   10   32 1
    18   11   16 ar
    19   11   12 ar
    20   12   13 ar
    21   12   33 1
    22   13   14 ar
    23   13   18 1
    24   14   15 ar
    25   14   34 1
    26   15   16 ar
    27   15   35 1
    28   16   17 1
    29   17   36 1
    30   18   19 1
    31   19   37 1
    32   19   38 1
    33   19   39 1
    34   20   25 ar
    35   20   21 ar
    36   21   22 ar
    37   21   40 1
    38   22   23 ar
    39   22   41 1
    40   23   24 ar
    41   23   26 1
    42   24   25 ar
    43   24   42 1
    44   25   43 1
    45   26   27 1
    46   27   44 1
    47   27   45 1
    48   27   46 1
@<TRIPOS>MOLECULE
ZINC03868301
   43    45     0     0     0
SMALL
USER_CHARGES

@<TRIPOS>ATOM
      1 C1          1.1022   -0.1388    1.1077 C.3       1 <0>        -0.2036
      2 C2          0.2052    0.6366    2.0747 C.3       1 <0>         0.0763
      3 C3         -1.2538    0.3063    1.8300 C.2       1 <0>         0.3278
      4 O1         -1.8876    0.4974    0.8141 O.2       1 <0>        -0.2840
      5 N1         -1.7003   -0.2429    2.9768 N.am      1 <0>        -0.2821
      6 C4         -0.7362   -0.3049    3.9024 C.2       1 <0>         0.4016
      7 O2         -0.8984   -0.7606    5.0174 O.2       1 <0>        -0.3712
      8 N2          0.4328    0.1936    3.4610 N.am      1 <0>        -0.3939
      9 N3         -3.0118   -0.6940    3.1751 N.2       1 <0>        -0.0040
     10 C5         -3.7303   -0.1982    4.1354 C.2       1 <0>        -0.0188
     11 C6         -3.2363    0.9582    4.9039 C.ar      1 <0>        -0.1212
     12 C7         -2.2835    1.8162    4.3472 C.ar      1 <0>        -0.1133
     13 C8         -1.8271    2.8993    5.0675 C.ar      1 <0>        -0.1222
     14 C9         -2.3004    3.1376    6.3467 C.ar      1 <0>        -0.1223
     15 C10        -3.2414    2.2929    6.9133 C.ar      1 <0>         0.0488
     16 C11        -3.7146    1.1994    6.1972 C.ar      1 <0>         0.0851
     17 O3         -4.6373    0.3690    6.7498 O.3       1 <0>        -0.2812
     18 O4         -3.7016    2.5334    8.1703 O.3       1 <0>        -0.2764
     19 C12         0.4456    2.1187    1.9455 C.ar      1 <0>        -0.1438
     20 C13        -0.3013    2.8637    1.0516 C.ar      1 <0>        -0.0779
     21 C14        -0.0868    4.2234    0.9354 C.ar      1 <0>        -0.2170
     22 C15         0.8865    4.8395    1.7087 C.ar      1 <0>         0.1068
     23 C16         1.6384    4.0888    2.6007 C.ar      1 <0>        -0.1623
     24 C17         1.4165    2.7303    2.7169 C.ar      1 <0>        -0.0753
     25 O5          1.1032    6.1760    1.5922 O.3       1 <0>        -0.2096
     26 C18         0.2919    6.8855    0.6539 C.3       1 <0>        -0.0647
     27 H1          0.8877   -1.2044    1.1883 H         1 <0>         0.0940
     28 H2          2.1476    0.0413    1.3580 H         1 <0>         0.0904
     29 H3          0.9102    0.1942    0.0877 H         1 <0>         0.1058
     30 H4          1.2634    0.2506    3.9588 H         1 <0>         0.2752
     31 H5         -4.6903   -0.6331    4.3714 H         1 <0>         0.1984
     32 H6         -1.9075    1.6326    3.3515 H         1 <0>         0.1458
     33 H7         -1.0934    3.5626    4.6337 H         1 <0>         0.1424
     34 H8         -1.9346    3.9864    6.9054 H         1 <0>         0.1452
     35 H9         -4.2584   -0.4110    7.1777 H         1 <0>         0.2342
     36 H10        -3.1861    2.1041    8.8667 H         1 <0>         0.2262
     37 H11        -1.0558    2.3828    0.4467 H         1 <0>         0.1653
     38 H12        -0.6737    4.8057    0.2406 H         1 <0>         0.1433
     39 H13         2.3969    4.5660    3.2035 H         1 <0>         0.1479
     40 H14         2.0016    2.1454    3.4112 H         1 <0>         0.1306
     41 H15         0.4475    6.4755   -0.3440 H         1 <0>         0.0710
     42 H16        -0.7575    6.7819    0.9296 H         1 <0>         0.0711
     43 H17         0.5668    7.9402    0.6603 H         1 <0>         0.1117
@<TRIPOS>BOND
     1    1    2 1
     2    1   27 1
     3    1   28 1
     4    1   29 1
     5    2    8 1
     6    2    3 1
     7    2   19 1
     8    3    4 2
     9    3    5 am
    10    5    6 am
    11    5    9 1
    12    6    7 2
    13    6    8 am
    14    8   30 1
    15    9   10 2
    16   10   11 1
    17   10   31 1
    18   11   16 ar
    19   11   12 ar
    20   12   13 ar
    21   12   32 1
    22   13   14 ar
    23   13   33 1
    24   14   15 ar
    25   14   34 1
    26   15   16 ar
    27   15   18 1
    28   16   17 1
    29   17   35 1
    30   18   36 1
    31   19   24 ar
    32   19   20 ar
    33   20   21 ar
    34   20   37 1
    35   21   22 ar
    36   21   38 1
    37   22   23 ar
    38   22   25 1
    39   23   24 ar
    40   23   39 1
    41   24   40 1
    42   25   26 1
    43   26   41 1
    44   26   42 1
    45   26   43 1
@<TRIPOS>MOLECULE
ZINC03868302
   43    45     0     0     0
SMALL
USER_CHARGES

@<TRIPOS>ATOM
      1 C1         -1.0903    0.4309   -0.4092 C.3       1 <0>        -0.2079
      2 C2         -0.1061    0.9251    0.6529 C.3       1 <0>         0.0771
      3 C3          0.0364    2.4329    0.5908 C.2       1 <0>         0.3281
      4 O1         -0.8342    3.2587    0.7649 O.2       1 <0>        -0.2838
      5 N1          1.3309    2.6647    0.2961 N.am      1 <0>        -0.2821
      6 C4          2.0199    1.5248    0.1694 C.2       1 <0>         0.4022
      7 O2          3.2055    1.4777   -0.0943 O.2       1 <0>        -0.3718
      8 N2          1.2539    0.4367    0.3665 N.am      1 <0>        -0.3935
      9 N3          1.8864    3.9415    0.1408 N.2       1 <0>         0.0003
     10 C5          2.4649    4.2661   -0.9746 C.2       1 <0>        -0.0216
     11 C6          2.3843    3.3633   -2.1366 C.ar      1 <0>        -0.1168
     12 C7          1.3419    2.4371   -2.2354 C.ar      1 <0>        -0.1173
     13 C8          1.2673    1.5977   -3.3263 C.ar      1 <0>        -0.1263
     14 C9          2.2269    1.6590   -4.3225 C.ar      1 <0>        -0.1211
     15 C10         3.2688    2.5684   -4.2354 C.ar      1 <0>         0.0507
     16 C11         3.3544    3.4250   -3.1440 C.ar      1 <0>         0.0870
     17 O3          4.3745    4.3183   -3.0556 O.3       1 <0>        -0.2805
     18 O4          4.2075    2.6231   -5.2180 O.3       1 <0>        -0.2758
     19 C12        -0.5462    0.4926    2.0277 C.ar      1 <0>        -0.1390
     20 C13        -1.3998    1.2940    2.7631 C.ar      1 <0>        -0.0723
     21 C14        -1.8092    0.8971    4.0214 C.ar      1 <0>        -0.2172
     22 C15        -1.3538   -0.3012    4.5518 C.ar      1 <0>         0.1082
     23 C16        -0.4929   -1.1009    3.8142 C.ar      1 <0>        -0.1595
     24 C17        -0.0912   -0.7024    2.5540 C.ar      1 <0>        -0.0726
     25 O5         -1.7500   -0.6908    5.7920 O.3       1 <0>        -0.2101
     26 C18        -2.6372    0.1824    6.4938 C.3       1 <0>        -0.0642
     27 H1         -1.1098   -0.6589   -0.4074 H         1 <0>         0.0932
     28 H2         -2.0868    0.8125   -0.1868 H         1 <0>         0.1077
     29 H3         -0.7754    0.7870   -1.3901 H         1 <0>         0.0844
     30 H4          1.5403   -0.4891    0.3241 H         1 <0>         0.2753
     31 H5          3.0055    5.1980   -1.0512 H         1 <0>         0.1990
     32 H6          0.5929    2.3821   -1.4593 H         1 <0>         0.1437
     33 H7          0.4586    0.8858   -3.4022 H         1 <0>         0.1357
     34 H8          2.1629    0.9949   -5.1718 H         1 <0>         0.1456
     35 H9          5.1262    4.0065   -2.5334 H         1 <0>         0.2354
     36 H10         4.9654    2.0408   -5.0708 H         1 <0>         0.2271
     37 H11        -1.7500    2.2292    2.3518 H         1 <0>         0.1636
     38 H12        -2.4792    1.5215    4.5937 H         1 <0>         0.1419
     39 H13        -0.1366   -2.0340    4.2251 H         1 <0>         0.1472
     40 H14         0.5790   -1.3245    1.9794 H         1 <0>         0.1286
     41 H15        -3.5548    0.3067    5.9188 H         1 <0>         0.0695
     42 H16        -2.8739   -0.2462    7.4676 H         1 <0>         0.1104
     43 H17        -2.1596    1.1526    6.6302 H         1 <0>         0.0717
@<TRIPOS>BOND
     1    1    2 1
     2    1   27 1
     3    1   28 1
     4    1   29 1
     5    2    8 1
     6    2    3 1
     7    2   19 1
     8    3    4 2
     9    3    5 am
    10    5    6 am
    11    5    9 1
    12    6    7 2
    13    6    8 am
    14    8   30 1
    15    9   10 2
    16   10   11 1
    17   10   31 1
    18   11   16 ar
    19   11   12 ar
    20   12   13 ar
    21   12   32 1
    22   13   14 ar
    23   13   33 1
    24   14   15 ar
    25   14   34 1
    26   15   16 ar
    27   15   18 1
    28   16   17 1
    29   17   35 1
    30   18   36 1
    31   19   24 ar
    32   19   20 ar
    33   20   21 ar
    34   20   37 1
    35   21   22 ar
    36   21   38 1
    37   22   23 ar
    38   22   25 1
    39   23   24 ar
    40   23   39 1
    41   24   40 1
    42   25   26 1
    43   26   41 1
    44   26   42 1
    45   26   43 1
@<TRIPOS>MOLECULE
ZINC03868305
   46    48     0     0     0
SMALL
USER_CHARGES

@<TRIPOS>ATOM
      1 C1          0.2046   -0.8189    1.7374 C.3       1 <0>        -0.2040
      2 C2          0.7577   -0.2853    0.4144 C.3       1 <0>         0.0738
      3 C3          0.4302    1.1861    0.2542 C.2       1 <0>         0.3248
      4 O1         -0.6716    1.6887    0.1938 O.2       1 <0>        -0.2868
      5 N1          1.6183    1.8186    0.1871 N.am      1 <0>        -0.2789
      6 C4          2.6403    0.9603    0.2816 C.2       1 <0>         0.3991
      7 O2          3.8084    1.2943    0.2468 O.2       1 <0>        -0.3536
      8 N2          2.2305   -0.3136    0.4194 N.am      1 <0>        -0.3958
      9 N3          1.7651    3.2036    0.0359 N.2       1 <0>        -0.0139
     10 C5          2.4238    3.6797   -0.9758 C.2       1 <0>        -0.0118
     11 C6          2.7051    2.8224   -2.1415 C.ar      1 <0>        -0.1358
     12 C7          2.1091    1.5629   -2.2447 C.ar      1 <0>        -0.0912
     13 C8          2.3735    0.7625   -3.3359 C.ar      1 <0>        -0.2104
     14 C9          3.2309    1.2047   -4.3332 C.ar      1 <0>         0.0947
     15 C10         3.8284    2.4596   -4.2372 C.ar      1 <0>         0.0383
     16 C11         3.5639    3.2697   -3.1489 C.ar      1 <0>        -0.0825
     17 O3          4.6674    2.8899   -5.2171 O.3       1 <0>        -0.2728
     18 O4          3.4881    0.4117   -5.4067 O.3       1 <0>        -0.1966
     19 C12         2.8419   -0.8624   -5.4418 C.3       1 <0>        -0.0667
     20 C13         0.2160   -1.0785   -0.7468 C.ar      1 <0>        -0.1414
     21 C14        -0.9291   -0.6565   -1.3966 C.ar      1 <0>        -0.0779
     22 C15        -1.4245   -1.3787   -2.4650 C.ar      1 <0>        -0.2180
     23 C16        -0.7780   -2.5344   -2.8788 C.ar      1 <0>         0.1030
     24 C17         0.3676   -2.9588   -2.2215 C.ar      1 <0>        -0.1650
     25 C18         0.8619   -2.2302   -1.1570 C.ar      1 <0>        -0.0747
     26 O5         -1.2665   -3.2497   -3.9260 O.3       1 <0>        -0.2111
     27 C19        -2.4496   -2.7534   -4.5551 C.3       1 <0>        -0.0647
     28 H1         -0.8794   -0.7056    1.7501 H         1 <0>         0.1056
     29 H2          0.4608   -1.8735    1.8393 H         1 <0>         0.0902
     30 H3          0.6383   -0.2580    2.5652 H         1 <0>         0.0950
     31 H4          2.7948   -1.0979    0.5050 H         1 <0>         0.2760
     32 H5          2.7659    4.7040   -0.9637 H         1 <0>         0.1866
     33 H6          1.4416    1.2161   -1.4697 H         1 <0>         0.1511
     34 H7          1.9125   -0.2110   -3.4143 H         1 <0>         0.1467
     35 H8          4.0230    4.2446   -3.0755 H         1 <0>         0.1478
     36 H9          4.2258    3.3729   -5.9290 H         1 <0>         0.2243
     37 H10         3.1326   -1.3923   -6.3488 H         1 <0>         0.1122
     38 H11         3.1390   -1.4447   -4.5697 H         1 <0>         0.0729
     39 H12         1.7610   -0.7218   -5.4338 H         1 <0>         0.0686
     40 H13        -1.4345    0.2409   -1.0713 H         1 <0>         0.1670
     41 H14        -2.3163   -1.0461   -2.9753 H         1 <0>         0.1429
     42 H15         0.8725   -3.8583   -2.5416 H         1 <0>         0.1475
     43 H16         1.7537   -2.5602   -0.6450 H         1 <0>         0.1324
     44 H17        -2.7315   -3.4161   -5.3733 H         1 <0>         0.1117
     45 H18        -3.2588   -2.7119   -3.8260 H         1 <0>         0.0724
     46 H19        -2.2611   -1.7535   -4.9460 H         1 <0>         0.0694
@<TRIPOS>BOND
     1    1    2 1
     2    1   28 1
     3    1   29 1
     4    1   30 1
     5    2    8 1
     6    2    3 1
     7    2   20 1
     8    3    4 2
     9    3    5 am
    10    5    6 am
    11    5    9 1
    12    6    7 2
    13    6    8 am
    14    8   31 1
    15    9   10 2
    16   10   11 1
    17   10   32 1
    18   11   16 ar
    19   11   12 ar
    20   12   13 ar
    21   12   33 1
    22   13   14 ar
    23   13   34 1
    24   14   15 ar
    25   14   18 1
    26   15   16 ar
    27   15   17 1
    28   16   35 1
    29   17   36 1
    30   18   19 1
    31   19   37 1
    32   19   38 1
    33   19   39 1
    34   20   25 ar
    35   20   21 ar
    36   21   22 ar
    37   21   40 1
    38   22   23 ar
    39   22   41 1
    40   23   24 ar
    41   23   26 1
    42   24   25 ar
    43   24   42 1
    44   25   43 1
    45   26   27 1
    46   27   44 1
    47   27   45 1
    48   27   46 1
@<TRIPOS>MOLECULE
ZINC03868456
   39    40     0     0     0
SMALL
USER_CHARGES

@<TRIPOS>ATOM
      1 C1        -10.7094    2.6282   -1.5622 C.3       1 <0>        -0.0539
      2 N1         -9.4597    3.3857   -1.4592 N.am      1 <0>        -0.3928
      3 C2         -8.4819    2.9635   -0.6334 C.2       1 <0>         0.3465
      4 O1         -8.6369    1.9539    0.0262 O.2       1 <0>        -0.3658
      5 C3         -7.2229    3.7266   -0.5296 C.ar      1 <0>        -0.1426
      6 C4         -6.2080    3.2901    0.3263 C.ar      1 <0>        -0.0501
      7 C5         -5.0347    4.0039    0.4205 C.ar      1 <0>        -0.1377
      8 C6         -4.8587    5.1590   -0.3355 C.ar      1 <0>         0.0759
      9 C7         -5.8696    5.5994   -1.1844 C.ar      1 <0>        -0.1714
     10 C8         -7.0430    4.8871   -1.2874 C.ar      1 <0>        -0.0898
     11 N2         -3.6701    5.8791   -0.2379 N.am      1 <0>        -0.3179
     12 C9         -2.4998    5.2297   -0.0795 C.2       1 <0>         0.3363
     13 O2         -2.4888    4.0208    0.0608 O.2       1 <0>        -0.3581
     14 C10        -1.2420    5.9782   -0.0764 C.2       1 <0>        -0.2374
     15 C11        -0.0656    5.3197   -0.0515 C.2       1 <0>        -0.0218
     16 C12        -0.0335    3.8623   -0.2552 C.ar      1 <0>        -0.0799
     17 C13        -0.8090    3.2758   -1.2605 C.ar      1 <0>        -0.0034
     18 C14        -0.7702    1.9105   -1.4479 C.ar      1 <0>        -0.1450
     19 C15         0.0259    1.1194   -0.6377 C.ar      1 <0>        -0.0509
     20 C16         0.7964    1.6922    0.3589 C.ar      1 <0>        -0.1237
     21 C17         0.7721    3.0570    0.5557 C.ar      1 <0>        -0.0487
     22 N3          1.6486    0.8378    1.2161 N.pl3     1 <0>         0.5511
     23 O3          1.6709   -0.3677    1.0439 O.2       1 <0>        -0.3577
     24 O4          2.3274    1.3403    2.0937 O.3       1 <0>        -0.3619
     25 H1        -11.1902    2.5858   -0.5849 H         1 <0>         0.0869
     26 H2        -11.3742    3.1188   -2.2732 H         1 <0>         0.0741
     27 H3        -10.4937    1.6163   -1.9052 H         1 <0>         0.0870
     28 H4         -9.3360    4.1911   -1.9854 H         1 <0>         0.2207
     29 H5         -6.3439    2.3936    0.9130 H         1 <0>         0.1640
     30 H6         -4.2499    3.6669    1.0815 H         1 <0>         0.1709
     31 H7         -5.7317    6.4987   -1.7665 H         1 <0>         0.1317
     32 H8         -7.8253    5.2267   -1.9500 H         1 <0>         0.1269
     33 H9         -3.6848    6.8479   -0.2839 H         1 <0>         0.2360
     34 H10        -1.2562    7.0580   -0.0940 H         1 <0>         0.1388
     35 H11         0.8531    5.8617    0.1180 H         1 <0>         0.1469
     36 H12        -1.4340    3.8913   -1.8906 H         1 <0>         0.1420
     37 H13        -1.3654    1.4566   -2.2265 H         1 <0>         0.1489
     38 H14         0.0492    0.0500   -0.7869 H         1 <0>         0.1634
     39 H15         1.3741    3.5026    1.3338 H         1 <0>         0.1626
@<TRIPOS>BOND
     1    1    2 1
     2    1   25 1
     3    1   26 1
     4    1   27 1
     5    2    3 am
     6    2   28 1
     7    3    4 2
     8    3    5 1
     9    5   10 ar
    10    5    6 ar
    11    6    7 ar
    12    6   29 1
    13    7    8 ar
    14    7   30 1
    15    8    9 ar
    16    8   11 1
    17    9   10 ar
    18    9   31 1
    19   10   32 1
    20   11   12 am
    21   11   33 1
    22   12   13 2
    23   12   14 1
    24   14   15 2
    25   14   34 1
    26   15   16 1
    27   15   35 1
    28   16   21 ar
    29   16   17 ar
    30   17   18 ar
    31   17   36 1
    32   18   19 ar
    33   18   37 1
    34   19   20 ar
    35   19   38 1
    36   20   21 ar
    37   20   22 1
    38   21   39 1
    39   22   23 2
    40   22   24 1
@<TRIPOS>MOLECULE
ZINC03868476
   45    48     0     0     0
SMALL
USER_CHARGES

@<TRIPOS>ATOM
      1 C1          2.2499    2.1444   -4.0031 C.ar      1 <0>        -0.1609
      2 C2          1.7223    3.1014   -4.8538 C.ar      1 <0>        -0.0734
      3 C3          1.6202    4.4195   -4.4541 C.ar      1 <0>        -0.1647
      4 C4          2.0580    4.8024   -3.1917 C.ar      1 <0>         0.0836
      5 C5          2.5970    3.8317   -2.3351 C.ar      1 <0>        -0.1786
      6 C6          2.6907    2.5045   -2.7456 C.ar      1 <0>        -0.0509
      7 C7          2.9671    4.5323   -1.0870 C.2       1 <0>         0.0051
      8 N1          3.5068    4.0147   -0.0099 N.2       1 <0>        -0.0651
      9 C8          3.9137    2.7175   -0.0095 C.ar      1 <0>         0.0085
     10 C9          3.2797    1.7834    0.8209 C.ar      1 <0>        -0.1329
     11 C10         3.6871    0.4798    0.8165 C.ar      1 <0>        -0.0934
     12 C11         4.7420    0.0790   -0.0082 C.ar      1 <0>        -0.1381
     13 C12         5.3791    1.0101   -0.8332 C.ar      1 <0>        -0.0593
     14 C13         4.9715    2.3137   -0.8354 C.ar      1 <0>        -0.1606
     15 C14         5.1846   -1.3310   -0.0075 C.2       1 <0>         0.3463
     16 O1          6.1022   -1.6803   -0.7241 O.2       1 <0>        -0.3744
     17 N2          4.5709   -2.2295    0.7878 N.am      1 <0>        -0.3816
     18 C15         5.0097   -3.6273    0.7885 C.3       1 <0>        -0.0007
     19 C16         4.1545   -4.4298    1.7712 C.3       1 <0>         0.0007
     20 H1          3.1045   -4.3672    1.4854 H         1 <0>         0.0871
     21 C17         4.6084   -5.9024    1.7794 C.3       1 <0>        -0.1879
     22 C18         5.0030   -6.1696    3.2523 C.3       1 <0>        -0.1945
     23 C19         4.2408   -5.0470    4.0014 C.3       1 <0>        -0.0256
     24 O2          4.3327   -3.9203    3.1034 O.3       1 <0>        -0.2705
     25 C20         2.5932    5.9524   -1.3206 C.2       1 <0>         0.3540
     26 O3          2.7332    6.8688   -0.5350 O.2       1 <0>        -0.2843
     27 N3          2.0732    6.0405   -2.5568 N.am      1 <0>        -0.3090
     28 H2          2.3206    1.1161   -4.3255 H         1 <0>         0.1412
     29 H3          1.3838    2.8135   -5.8381 H         1 <0>         0.1382
     30 H4          1.2030    5.1553   -5.1256 H         1 <0>         0.1364
     31 H5          3.1067    1.7600   -2.0830 H         1 <0>         0.1512
     32 H6          2.4670    2.0934    1.4611 H         1 <0>         0.1489
     33 H7          3.1966   -0.2410    1.4539 H         1 <0>         0.1338
     34 H8          6.1940    0.6984   -1.4698 H         1 <0>         0.1617
     35 H9          5.4643    3.0329   -1.4728 H         1 <0>         0.1482
     36 H10         3.8387   -1.9508    1.3597 H         1 <0>         0.2308
     37 H11         4.8993   -4.0433   -0.2129 H         1 <0>         0.0973
     38 H12         6.0557   -3.6796    1.0904 H         1 <0>         0.1060
     39 H13         3.7891   -6.5558    1.4794 H         1 <0>         0.0927
     40 H14         5.4677   -6.0405    1.1231 H         1 <0>         0.0998
     41 H15         4.6615   -7.1534    3.5742 H         1 <0>         0.0938
     42 H16         6.0795   -6.0690    3.3909 H         1 <0>         0.1007
     43 H17         3.1996   -5.3288    4.1584 H         1 <0>         0.0750
     44 H18         4.7259   -4.8215    4.9512 H         1 <0>         0.1096
     45 H19         1.7496    6.8632   -2.9560 H         1 <0>         0.2562
@<TRIPOS>BOND
     1    1    6 ar
     2    1    2 ar
     3    1   28 1
     4    2    3 ar
     5    2   29 1
     6    3    4 ar
     7    3   30 1
     8    4   27 1
     9    4    5 ar
    10    5    6 ar
    11    5    7 1
    12    6   31 1
    13    7    8 2
    14    7   25 1
    15    8    9 1
    16    9   14 ar
    17    9   10 ar
    18   10   11 ar
    19   10   32 1
    20   11   12 ar
    21   11   33 1
    22   12   13 ar
    23   12   15 1
    24   13   14 ar
    25   13   34 1
    26   14   35 1
    27   15   16 2
    28   15   17 am
    29   17   18 1
    30   17   36 1
    31   18   19 1
    32   18   37 1
    33   18   38 1
    34   19   20 1
    35   19   24 1
    36   19   21 1
    37   21   22 1
    38   21   39 1
    39   21   40 1
    40   22   23 1
    41   22   41 1
    42   22   42 1
    43   23   24 1
    44   23   43 1
    45   23   44 1
    46   25   26 2
    47   25   27 am
    48   27   45 1
@<TRIPOS>MOLECULE
ZINC03868477
   45    48     0     0     0
SMALL
USER_CHARGES

@<TRIPOS>ATOM
      1 C1         -5.9864    1.2090    4.2478 C.ar      1 <0>        -0.1626
      2 C2         -7.2618    1.3731    4.7620 C.ar      1 <0>        -0.0736
      3 C3         -7.4573    2.0181    5.9675 C.ar      1 <0>        -0.1646
      4 C4         -6.3706    2.5115    6.6799 C.ar      1 <0>         0.0841
      5 C5         -5.0811    2.3488    6.1533 C.ar      1 <0>        -0.1778
      6 C6         -4.8942    1.6922    4.9397 C.ar      1 <0>        -0.0532
      7 C7         -4.1508    2.9629    7.1242 C.2       1 <0>         0.0029
      8 N1         -2.8444    3.0393    7.0409 N.2       1 <0>        -0.0632
      9 C8         -2.2108    2.6370    5.9073 C.ar      1 <0>         0.0068
     10 C9         -1.2950    1.5772    5.9538 C.ar      1 <0>        -0.1301
     11 C10        -0.6599    1.1742    4.8137 C.ar      1 <0>        -0.0575
     12 C11        -0.9232    1.8177    3.6012 C.ar      1 <0>        -0.1362
     13 C12        -1.8322    2.8783    3.5537 C.ar      1 <0>        -0.0979
     14 C13        -2.4730    3.2812    4.6906 C.ar      1 <0>        -0.1587
     15 C14        -0.2348    1.3800    2.3688 C.2       1 <0>         0.3464
     16 O1          0.5597    0.4610    2.4101 O.2       1 <0>        -0.3710
     17 N2         -0.4880    1.9999    1.1991 N.am      1 <0>        -0.3844
     18 C15         0.1943    1.5660   -0.0225 C.3       1 <0>         0.0032
     19 C16        -0.2689    2.4277   -1.1989 C.3       1 <0>        -0.0020
     20 H1         -1.3572    2.4316   -1.2600 H         1 <0>         0.0855
     21 C17         0.3420    1.9084   -2.5193 C.3       1 <0>        -0.1856
     22 C18         0.6445    3.1925   -3.3236 C.3       1 <0>        -0.1941
     23 C19         0.1805    4.3357   -2.3940 C.3       1 <0>        -0.0282
     24 O2          0.2341    3.7748   -1.0642 O.3       1 <0>        -0.2653
     25 C20        -5.0213    3.4807    8.2129 C.2       1 <0>         0.3542
     26 O3         -4.6493    4.0645    9.2115 O.2       1 <0>        -0.2834
     27 N3         -6.2935    3.1867    7.8941 N.am      1 <0>        -0.3091
     28 H2         -5.8464    0.7029    3.3041 H         1 <0>         0.1394
     29 H3         -8.1118    0.9926    4.2152 H         1 <0>         0.1379
     30 H4         -8.4571    2.1398    6.3573 H         1 <0>         0.1367
     31 H5         -3.8992    1.5651    4.5395 H         1 <0>         0.1519
     32 H6         -1.0918    1.0792    6.8903 H         1 <0>         0.1526
     33 H7          0.0460    0.3576    4.8490 H         1 <0>         0.1632
     34 H8         -2.0309    3.3771    2.6166 H         1 <0>         0.1318
     35 H9         -3.1782    4.0983    4.6527 H         1 <0>         0.1455
     36 H10        -1.1220    2.7333    1.1662 H         1 <0>         0.2285
     37 H11        -0.0450    0.5213   -0.2209 H         1 <0>         0.0992
     38 H12         1.2715    1.6741    0.1050 H         1 <0>         0.1099
     39 H13         1.2605    1.3551   -2.3235 H         1 <0>         0.1005
     40 H14        -0.3741    1.2819   -3.0511 H         1 <0>         0.0922
     41 H15         1.7125    3.2740   -3.5254 H         1 <0>         0.0974
     42 H16         0.0789    3.2017   -4.2553 H         1 <0>         0.0906
     43 H17         0.8558    5.1876   -2.4740 H         1 <0>         0.1089
     44 H18        -0.8381    4.6354   -2.6404 H         1 <0>         0.0727
     45 H19        -7.0608    3.4163    8.4413 H         1 <0>         0.2563
@<TRIPOS>BOND
     1    1    6 ar
     2    1    2 ar
     3    1   28 1
     4    2    3 ar
     5    2   29 1
     6    3    4 ar
     7    3   30 1
     8    4   27 1
     9    4    5 ar
    10    5    6 ar
    11    5    7 1
    12    6   31 1
    13    7    8 2
    14    7   25 1
    15    8    9 1
    16    9   14 ar
    17    9   10 ar
    18   10   11 ar
    19   10   32 1
    20   11   12 ar
    21   11   33 1
    22   12   13 ar
    23   12   15 1
    24   13   14 ar
    25   13   34 1
    26   14   35 1
    27   15   16 2
    28   15   17 am
    29   17   18 1
    30   17   36 1
    31   18   19 1
    32   18   37 1
    33   18   38 1
    34   19   20 1
    35   19   24 1
    36   19   21 1
    37   21   22 1
    38   21   39 1
    39   21   40 1
    40   22   23 1
    41   22   41 1
    42   22   42 1
    43   23   24 1
    44   23   43 1
    45   23   44 1
    46   25   26 2
    47   25   27 am
    48   27   45 1
@<TRIPOS>MOLECULE
ZINC03868690
   45    48     0     0     0
SMALL
USER_CHARGES

@<TRIPOS>ATOM
      1 C1          1.8647    0.6872   -7.4875 C.3       1 <0>        -0.1742
      2 C2          3.0225    1.0152   -6.5804 C.ar      1 <0>        -0.0587
      3 C3          4.2526    1.3428   -7.1212 C.ar      1 <0>        -0.1416
      4 C4          5.3172    1.6448   -6.2924 C.ar      1 <0>        -0.1096
      5 C5          5.1554    1.6198   -4.9208 C.ar      1 <0>        -0.1641
      6 C6          3.9218    1.2913   -4.3747 C.ar      1 <0>         0.0612
      7 C7          2.8557    0.9833   -5.2099 C.ar      1 <0>        -0.1236
      8 N1          3.7545    1.2651   -2.9857 N.am      1 <0>        -0.3240
      9 C8          2.5841    1.6515   -2.4405 C.2       1 <0>         0.2869
     10 O1          1.6486    1.9421   -3.1556 O.2       1 <0>        -0.3364
     11 C9          2.4378    1.7225   -0.9423 C.3       1 <0>        -0.0167
     12 N2          1.0828    2.1652   -0.6044 N.am      1 <0>        -0.3073
     13 C10         0.7049    3.4494   -0.4423 C.2       1 <0>         0.3514
     14 O2          1.4085    4.4371   -0.5463 O.2       1 <0>        -0.2935
     15 C11        -0.7285    3.4163   -0.1136 C.2       1 <0>        -0.0684
     16 C12        -1.5415    4.4736    0.1356 C.2       1 <0>        -0.0646
     17 C13        -0.9740    5.8221    0.2637 C.ar      1 <0>        -0.0689
     18 C14        -1.6776    6.9296   -0.2248 C.ar      1 <0>        -0.0967
     19 C15        -1.1426    8.1928   -0.1031 C.ar      1 <0>        -0.1241
     20 C16         0.0938    8.3738    0.5030 C.ar      1 <0>         0.0215
     21 C17         0.8014    7.2746    0.9924 C.ar      1 <0>        -0.0004
     22 C18         0.2697    6.0052    0.8798 C.ar      1 <0>        -0.0543
     23 O3          1.9736    7.7178    1.5345 O.3       1 <0>        -0.2061
     24 C19         2.1630    9.0441    1.0073 C.3       1 <0>         0.1071
     25 O4          0.8243    9.5013    0.7400 O.3       1 <0>        -0.2081
     26 N3         -1.0753    2.0582   -0.1188 N.am      1 <0>        -0.3221
     27 C20         0.0324    1.3533   -0.4095 C.2       1 <0>         0.4130
     28 O5          0.0753    0.1406   -0.4901 O.2       1 <0>        -0.3580
     29 H1          1.8557   -0.3834   -7.6924 H         1 <0>         0.0851
     30 H2          0.9311    0.9722   -7.0025 H         1 <0>         0.0892
     31 H3          1.9699    1.2354   -8.4236 H         1 <0>         0.0807
     32 H4          4.3818    1.3624   -8.1933 H         1 <0>         0.1300
     33 H5          6.2764    1.9003   -6.7178 H         1 <0>         0.1305
     34 H6          5.9874    1.8558   -4.2739 H         1 <0>         0.1272
     35 H7          1.8961    0.7230   -4.7881 H         1 <0>         0.1658
     36 H8          4.4809    0.9688   -2.4152 H         1 <0>         0.2310
     37 H9          3.1623    2.4303   -0.5396 H         1 <0>         0.1304
     38 H10         2.6156    0.7366   -0.5127 H         1 <0>         0.1324
     39 H11        -2.6059    4.3235    0.2398 H         1 <0>         0.1467
     40 H12        -2.6396    6.7934   -0.6965 H         1 <0>         0.1398
     41 H13        -1.6869    9.0461   -0.4802 H         1 <0>         0.1449
     42 H14         0.8145    5.1547    1.2622 H         1 <0>         0.1528
     43 H15         2.7470    9.0107    0.0876 H         1 <0>         0.0918
     44 H16         2.6459    9.6842    1.7457 H         1 <0>         0.1289
     45 H17        -1.9560    1.6922    0.0580 H         1 <0>         0.2731
@<TRIPOS>BOND
     1    1    2 1
     2    1   29 1
     3    1   30 1
     4    1   31 1
     5    2    7 ar
     6    2    3 ar
     7    3    4 ar
     8    3   32 1
     9    4    5 ar
    10    4   33 1
    11    5    6 ar
    12    5   34 1
    13    6    7 ar
    14    6    8 1
    15    7   35 1
    16    8    9 am
    17    8   36 1
    18    9   10 2
    19    9   11 1
    20   11   12 1
    21   11   37 1
    22   11   38 1
    23   12   27 am
    24   12   13 am
    25   13   14 2
    26   13   15 1
    27   15   16 2
    28   15   26 1
    29   16   17 1
    30   16   39 1
    31   17   22 ar
    32   17   18 ar
    33   18   19 ar
    34   18   40 1
    35   19   20 ar
    36   19   41 1
    37   20   25 1
    38   20   21 ar
    39   21   22 ar
    40   21   23 1
    41   22   42 1
    42   23   24 1
    43   24   25 1
    44   24   43 1
    45   24   44 1
    46   26   27 am
    47   26   45 1
    48   27   28 2
@<TRIPOS>MOLECULE
ZINC03868783
   43    45     0     0     0
SMALL
USER_CHARGES

@<TRIPOS>ATOM
      1 C1         -2.4713    0.0919    0.1312 C.3       1 <0>        -0.2107
      2 C2         -1.2947   -0.0012   -0.8424 C.3       1 <0>        -0.0184
      3 O1         -1.3197    1.1196   -1.7285 O.3       1 <0>        -0.2017
      4 C3         -0.3347    1.1896   -2.6635 C.ar      1 <0>         0.0607
      5 C4          0.6291    0.2045   -2.7244 C.ar      1 <0>        -0.1767
      6 C5          1.6432    0.2800   -3.6906 C.ar      1 <0>        -0.0840
      7 C6          1.6705    1.3572   -4.5886 C.ar      1 <0>        -0.0693
      8 C7          0.7043    2.3343   -4.5191 C.ar      1 <0>        -0.1308
      9 C8         -0.3028    2.2549   -3.5645 C.ar      1 <0>         0.0726
     10 O2         -1.2557    3.2196   -3.5049 O.3       1 <0>        -0.2754
     11 C9          2.6696   -0.7611   -3.7610 C.2       1 <0>         0.0847
     12 C10         3.1228   -1.2007   -4.9871 C.2       1 <0>        -0.2820
     13 C11         2.5875   -0.8557   -6.3186 C.2       1 <0>         0.3533
     14 O3          1.6488   -0.1186   -6.5537 O.2       1 <0>        -0.3289
     15 N1          3.3377   -1.5129   -7.2232 N.am      1 <0>        -0.2819
     16 N2          4.3262   -2.2644   -6.5881 N.am      1 <0>        -0.1698
     17 C12         4.2519   -2.1128   -5.2523 C.2       1 <0>         0.3620
     18 O4          4.9750   -2.6314   -4.4226 O.2       1 <0>        -0.3328
     19 C13         5.2688   -3.0593   -7.2478 C.ar      1 <0>         0.0756
     20 C14         6.2171   -3.7646   -6.5183 C.ar      1 <0>        -0.1522
     21 C15         7.1433   -4.5529   -7.1726 C.ar      1 <0>        -0.0986
     22 C16         7.1344   -4.6314   -8.5532 C.ar      1 <0>        -0.0965
     23 C17         6.1949   -3.9262   -9.2828 C.ar      1 <0>        -0.0997
     24 C18         5.2623   -3.1406   -8.6344 C.ar      1 <0>        -0.1694
     25 C19         8.1505   -5.4876   -9.2642 C.3       1 <0>        -0.1723
     26 H1         -2.3932    1.0133    0.7084 H         1 <0>         0.0876
     27 H2         -3.4067    0.0919   -0.4284 H         1 <0>         0.0922
     28 H3         -2.4522   -0.7630    0.8071 H         1 <0>         0.0865
     29 H4         -1.3728   -0.9225   -1.4196 H         1 <0>         0.0761
     30 H5         -0.3593   -0.0012   -0.2828 H         1 <0>         0.0701
     31 H6          0.6031   -0.6223   -2.0300 H         1 <0>         0.1407
     32 H7          2.4496    1.4197   -5.3340 H         1 <0>         0.1495
     33 H8          0.7261    3.1633   -5.2110 H         1 <0>         0.1504
     34 H9         -1.0302    3.9600   -2.9251 H         1 <0>         0.2275
     35 H10         3.0719   -1.1851   -2.8529 H         1 <0>         0.1565
     36 H11         3.2083   -1.4699   -8.1836 H         1 <0>         0.2741
     37 H12         6.2274   -3.7002   -5.4402 H         1 <0>         0.1819
     38 H13         7.8782   -5.1051   -6.6057 H         1 <0>         0.1389
     39 H14         6.1906   -3.9896  -10.3610 H         1 <0>         0.1347
     40 H15         4.5286   -2.5905   -9.2048 H         1 <0>         0.1252
     41 H16         9.0362   -4.8921   -9.4856 H         1 <0>         0.0865
     42 H17         8.4274   -6.3275   -8.6270 H         1 <0>         0.0828
     43 H18         7.7229   -5.8624  -10.1941 H         1 <0>         0.0812
@<TRIPOS>BOND
     1    1    2 1
     2    1   26 1
     3    1   27 1
     4    1   28 1
     5    2    3 1
     6    2   29 1
     7    2   30 1
     8    3    4 1
     9    4    9 ar
    10    4    5 ar
    11    5    6 ar
    12    5   31 1
    13    6    7 ar
    14    6   11 1
    15    7    8 ar
    16    7   32 1
    17    8    9 ar
    18    8   33 1
    19    9   10 1
    20   10   34 1
    21   11   12 2
    22   11   35 1
    23   12   17 1
    24   12   13 1
    25   13   14 2
    26   13   15 am
    27   15   16 1
    28   15   36 1
    29   16   17 am
    30   16   19 1
    31   17   18 2
    32   19   24 ar
    33   19   20 ar
    34   20   21 ar
    35   20   37 1
    36   21   22 ar
    37   21   38 1
    38   22   23 ar
    39   22   25 1
    40   23   24 ar
    41   23   39 1
    42   24   40 1
    43   25   41 1
    44   25   42 1
    45   25   43 1
@<TRIPOS>MOLECULE
ZINC03869100
   43    45     0     0     0
SMALL
USER_CHARGES

@<TRIPOS>ATOM
      1 C1         -5.6179   11.0822   -0.6573 C.3       1 <0>        -0.2158
      2 C2         -6.3858    9.7591   -0.6732 C.3       1 <0>        -0.0044
      3 O1         -5.4502    8.6550   -0.5551 O.3       1 <0>        -0.2686
      4 C3         -5.9688    7.4113   -0.5531 C.2       1 <0>         0.3433
      5 O2         -7.1699    7.2536   -0.6474 O.2       1 <0>        -0.3382
      6 C4         -5.0786    6.2414   -0.4365 C.ar      1 <0>        -0.0848
      7 C5         -5.6152    4.9502   -0.4342 C.ar      1 <0>        -0.0396
      8 C6         -4.7819    3.8605   -0.3247 C.ar      1 <0>        -0.1446
      9 C7         -3.4055    4.0428   -0.2162 C.ar      1 <0>         0.0291
     10 C8         -2.8685    5.3278   -0.2128 C.ar      1 <0>        -0.1372
     11 C9         -3.6962    6.4213   -0.3273 C.ar      1 <0>        -0.0572
     12 N1         -2.5664    2.9400   -0.1053 N.pl3     1 <0>        -0.1150
     13 N2         -1.2913    3.1074   -0.0047 N.2       1 <0>         0.1198
     14 C10        -0.4899    2.0651    0.0012 C.2       1 <0>        -0.2924
     15 C11        -0.8696    0.6372    0.0228 C.2       1 <0>         0.0123
     16 N3          0.2262   -0.0697    0.0161 N.2       1 <0>         0.0275
     17 N4          1.3611    0.7403   -0.0087 N.pl3     1 <0>        -0.2039
     18 C12         0.9890    2.0649   -0.0190 C.cat     1 <0>         0.2748
     19 H1          2.7553    3.0906   -0.0547 H         1 <0>         0.2735
     20 C13        -2.2516    0.1029    0.0478 C.ar      1 <0>        -0.1030
     21 C14        -2.9224   -0.0465    1.2611 C.ar      1 <0>        -0.1009
     22 C15        -4.2115   -0.5387    1.2774 C.ar      1 <0>        -0.1216
     23 C16        -4.8337   -0.8954    0.0944 C.ar      1 <0>        -0.0884
     24 C17        -4.1711   -0.7547   -1.1119 C.ar      1 <0>        -0.1218
     25 C18        -2.8842   -0.2578   -1.1415 C.ar      1 <0>        -0.0976
     26 H2         -5.0669   11.1714    0.2790 H         1 <0>         0.0872
     27 H3         -4.9192   11.1069   -1.4937 H         1 <0>         0.0871
     28 H4         -6.3202   11.9112   -0.7459 H         1 <0>         0.1018
     29 H5         -6.9367    9.6699   -1.6095 H         1 <0>         0.0964
     30 H6         -7.0844    9.7343    0.1631 H         1 <0>         0.0965
     31 H7         -6.6825    4.8083   -0.5179 H         1 <0>         0.1801
     32 H8         -5.1958    2.8630   -0.3226 H         1 <0>         0.1481
     33 H9         -1.8011    5.4662   -0.1241 H         1 <0>         0.1493
     34 H10        -3.2788    7.4173   -0.3288 H         1 <0>         0.1710
     35 H11        -2.9397    2.0448   -0.1036 H         1 <0>         0.2616
     36 H12         2.2759    0.4181   -0.0167 H         1 <0>         0.3096
     37 H13        -2.4358    0.2266    2.1857 H         1 <0>         0.1478
     38 H14        -4.7341   -0.6502    2.2159 H         1 <0>         0.1574
     39 H15        -5.8409   -1.2848    0.1125 H         1 <0>         0.1562
     40 H16        -4.6623   -1.0341   -2.0323 H         1 <0>         0.1575
     41 H17        -2.3681   -0.1482   -2.0838 H         1 <0>         0.1487
     42 N5          1.7381    3.1659   -0.0418 N.pl3     1 <0>        -0.3018
     43 H18         1.2917    4.0906   -0.0464 H         1 <0>         0.3001
@<TRIPOS>BOND
     1    1    2 1
     2    1   26 1
     3    1   27 1
     4    1   28 1
     5    2    3 1
     6    2   29 1
     7    2   30 1
     8    3    4 1
     9    4    5 2
    10    4    6 1
    11    6   11 ar
    12    6    7 ar
    13    7    8 ar
    14    7   31 1
    15    8    9 ar
    16    8   32 1
    17    9   10 ar
    18    9   12 1
    19   10   11 ar
    20   10   33 1
    21   11   34 1
    22   12   13 1
    23   12   35 1
    24   13   14 2
    25   14   18 1
    26   14   15 1
    27   15   16 2
    28   15   20 1
    29   16   17 1
    30   17   18 1
    31   17   36 1
    32   18   42 2
    33   19   42 1
    34   20   25 ar
    35   20   21 ar
    36   21   22 ar
    37   21   37 1
    38   22   23 ar
    39   22   38 1
    40   23   24 ar
    41   23   39 1
    42   24   25 ar
    43   24   40 1
    44   25   41 1
    45   42   43 1
@<TRIPOS>MOLECULE
ZINC03871987
   42    44     0     0     0
SMALL
USER_CHARGES

@<TRIPOS>ATOM
      1 C1          1.7050   12.5134   -0.7946 C.3       1 <0>        -0.0682
      2 O1          0.7678   11.8199    0.0316 O.3       1 <0>        -0.1917
      3 C2          0.8302   10.4629    0.0301 C.ar      1 <0>         0.1029
      4 C3          1.7761    9.8142   -0.7523 C.ar      1 <0>        -0.2241
      5 C4          1.8434    8.4381   -0.7585 C.ar      1 <0>        -0.0366
      6 C5          0.9577    7.6913    0.0252 C.ar      1 <0>        -0.1074
      7 C6          0.0015    8.3452    0.8091 C.ar      1 <0>        -0.0765
      8 C7         -0.0560    9.7253    0.8139 C.ar      1 <0>         0.0347
      9 O2         -0.9807   10.3646    1.5792 O.3       1 <0>        -0.2708
     10 C8          1.0278    6.2202    0.0203 C.2       1 <0>         0.1619
     11 C9          2.2537    5.6001    0.1783 C.2       1 <0>        -0.0957
     12 C10         2.3290    4.2016    0.1757 C.2       1 <0>         0.1974
     13 C11         1.1363    3.4653    0.0081 C.2       1 <0>        -0.1979
     14 C12         1.1555    2.0548   -0.0039 C.2       1 <0>         0.0899
     15 C13        -0.0103    1.3607   -0.1679 C.2       1 <0>        -0.0049
     16 C14        -1.2276    2.0484   -0.3300 C.2       1 <0>         0.2443
     17 O3         -2.3612    1.3619   -0.4947 O.2       1 <0>        -0.3616
     18 C15        -1.2576    3.4456   -0.3136 C.2       1 <0>        -0.2622
     19 C16        -0.0848    4.1586   -0.1489 C.2       1 <0>         0.1267
     20 O4         -0.1009    5.5082   -0.1379 O.3       1 <0>        -0.0793
     21 O5          0.0066   -0.0011   -0.1802 O.3       1 <0>        -0.2135
     22 C17        -0.1548   -0.6633    1.0758 C.3       1 <0>        -0.0517
     23 O6          2.3295    1.3883    0.1476 O.3       1 <0>        -0.2682
     24 O7          3.5159    3.5719    0.3292 O.3       1 <0>        -0.2604
     25 O8          3.3812    6.3451    0.3363 O.3       1 <0>        -0.2147
     26 C18         3.8126    6.5929    1.6759 C.3       1 <0>        -0.0654
     27 H1          2.7190   12.2665   -0.4800 H         1 <0>         0.0726
     28 H2          1.5641   12.2149   -1.8334 H         1 <0>         0.0702
     29 H3          1.5469   13.5878   -0.7006 H         1 <0>         0.1167
     30 H4          2.4605   10.3898   -1.3578 H         1 <0>         0.1483
     31 H5          2.5798    7.9361   -1.3686 H         1 <0>         0.1536
     32 H6         -0.6876    7.7726    1.4122 H         1 <0>         0.1591
     33 H7         -1.8214   10.5244    1.1288 H         1 <0>         0.2302
     34 H8         -2.1953    3.9677   -0.4343 H         1 <0>         0.1679
     35 H9          0.6494   -0.3665    1.7490 H         1 <0>         0.0620
     36 H10        -1.1146   -0.3863    1.5118 H         1 <0>         0.0741
     37 H11        -0.1224   -1.7423    0.9244 H         1 <0>         0.1022
     38 H12         2.7873    1.2041   -0.6840 H         1 <0>         0.2293
     39 H13         3.9788    3.3972   -0.5016 H         1 <0>         0.2525
     40 H14         3.0308    7.1265    2.2165 H         1 <0>         0.0680
     41 H15         4.0160    5.6446    2.1734 H         1 <0>         0.0780
     42 H16         4.7200    7.1966    1.6596 H         1 <0>         0.1084
@<TRIPOS>BOND
     1    1    2 1
     2    1   27 1
     3    1   28 1
     4    1   29 1
     5    2    3 1
     6    3    8 ar
     7    3    4 ar
     8    4    5 ar
     9    4   30 1
    10    5    6 ar
    11    5   31 1
    12    6    7 ar
    13    6   10 1
    14    7    8 ar
    15    7   32 1
    16    8    9 1
    17    9   33 1
    18   10   20 1
    19   10   11 2
    20   11   12 1
    21   11   25 1
    22   12   13 2
    23   12   24 1
    24   13   19 1
    25   13   14 1
    26   14   15 2
    27   14   23 1
    28   15   16 1
    29   15   21 1
    30   16   17 2
    31   16   18 1
    32   18   19 2
    33   18   34 1
    34   19   20 1
    35   21   22 1
    36   22   35 1
    37   22   36 1
    38   22   37 1
    39   23   38 1
    40   24   39 1
    41   25   26 1
    42   26   40 1
    43   26   41 1
    44   26   42 1
@<TRIPOS>MOLECULE
ZINC03872756
   44    47     0     0     0
SMALL
USER_CHARGES

@<TRIPOS>ATOM
      1 C1          2.2029    2.6123    4.0065 C.ar      1 <0>        -0.0733
      2 C2          1.3207    1.6429    4.3895 C.ar      1 <0>        -0.1463
      3 C3          0.5174    1.0115    3.4323 C.ar      1 <0>         0.1304
      4 C4          0.6201    1.3967    2.0734 C.ar      1 <0>        -0.2111
      5 C5          1.5267    2.4062    1.7040 C.ar      1 <0>        -0.1437
      6 C6          2.3084    3.0026    2.6789 C.ar      1 <0>        -0.1826
      7 S1          1.6658    2.9067    0.0203 S.3       1 <0>         0.2523
      8 C7          3.0111    4.0446    0.0237 C.ar      1 <0>        -0.2901
      9 C8          2.7707    5.4040    0.1799 C.ar      1 <0>        -0.0520
     10 C9          3.8253    6.2949    0.1873 C.ar      1 <0>        -0.1983
     11 C10         5.1255    5.8334    0.0280 C.ar      1 <0>         0.0512
     12 C11         5.3655    4.4750   -0.1335 C.ar      1 <0>        -0.1662
     13 C12         4.3117    3.5832   -0.1357 C.ar      1 <0>        -0.0510
     14 N1          6.1939    6.7374    0.0297 N.pl3     1 <0>        -0.1966
     15 C13         7.1804    6.3852    1.0613 C.3       1 <0>        -0.1079
     16 C14         8.3574    7.3615    0.9887 C.3       1 <0>        -0.0150
     17 O1          7.8714    8.6983    1.1382 O.3       1 <0>        -0.2776
     18 C15         6.9091    9.0749    0.1495 C.3       1 <0>        -0.0143
     19 C16         5.7174    8.1160    0.2136 C.3       1 <0>        -0.1182
     20 C17        -0.2058    0.7484    1.1268 C.ar      1 <0>         0.2575
     21 N2         -1.0305   -0.1979    1.5540 N.ar      1 <0>        -0.3285
     22 C18        -1.0929   -0.5344    2.8392 C.ar      1 <0>         0.2580
     23 N3         -0.3493    0.0418    3.7644 N.ar      1 <0>        -0.3079
     24 N4         -1.9742   -1.5292    3.2218 N.pl3     1 <0>        -0.3762
     25 N5         -0.1509    1.0878   -0.2086 N.pl3     1 <0>        -0.4024
     26 H1          2.8223    3.0903    4.7509 H         1 <0>         0.1312
     27 H2          1.2531    1.3533    5.4278 H         1 <0>         0.1491
     28 H3          3.0071    3.7786    2.4034 H         1 <0>         0.1396
     29 H4          1.7593    5.7633    0.2997 H         1 <0>         0.1433
     30 H5          3.6388    7.3512    0.3132 H         1 <0>         0.1416
     31 H6          6.3766    4.1164   -0.2577 H         1 <0>         0.1416
     32 H7          4.4984    2.5269   -0.2609 H         1 <0>         0.1463
     33 H8          6.7159    6.4476    2.0454 H         1 <0>         0.0796
     34 H9          7.5386    5.3700    0.8908 H         1 <0>         0.1052
     35 H10         8.8548    7.2609    0.0241 H         1 <0>         0.0809
     36 H11         9.0648    7.1399    1.7879 H         1 <0>         0.1130
     37 H12         7.3645    9.0241   -0.8395 H         1 <0>         0.0815
     38 H13         6.5683   10.0923    0.3414 H         1 <0>         0.1124
     39 H14         5.0077    8.3641   -0.5756 H         1 <0>         0.1076
     40 H15         5.2289    8.2058    1.1838 H         1 <0>         0.0785
     41 H16        -2.5306   -1.9659    2.5580 H         1 <0>         0.2361
     42 H17        -2.0359   -1.7903    4.1540 H         1 <0>         0.2397
     43 H18        -0.1248    2.0212   -0.4712 H         1 <0>         0.2459
     44 H19        -0.1345    0.3930   -0.8853 H         1 <0>         0.2364
@<TRIPOS>BOND
     1    1    6 ar
     2    1    2 ar
     3    1   26 1
     4    2    3 ar
     5    2   27 1
     6    3   23 ar
     7    3    4 ar
     8    4    5 ar
     9    4   20 ar
    10    5    6 ar
    11    5    7 1
    12    6   28 1
    13    7    8 1
    14    8   13 ar
    15    8    9 ar
    16    9   10 ar
    17    9   29 1
    18   10   11 ar
    19   10   30 1
    20   11   12 ar
    21   11   14 1
    22   12   13 ar
    23   12   31 1
    24   13   32 1
    25   14   19 1
    26   14   15 1
    27   15   16 1
    28   15   33 1
    29   15   34 1
    30   16   17 1
    31   16   35 1
    32   16   36 1
    33   17   18 1
    34   18   19 1
    35   18   37 1
    36   18   38 1
    37   19   39 1
    38   19   40 1
    39   20   21 ar
    40   20   25 1
    41   21   22 ar
    42   22   23 ar
    43   22   24 1
    44   24   41 1
    45   24   42 1
    46   25   43 1
    47   25   44 1
@<TRIPOS>MOLECULE
ZINC03872756
   45    48     0     0     0
SMALL
USER_CHARGES

@<TRIPOS>ATOM
      1 C1          2.2029    2.6123    4.0065 C.ar      1 <0>        -0.0139
      2 C2          1.3207    1.6429    4.3895 C.ar      1 <0>        -0.1870
      3 C3          0.5174    1.0115    3.4323 C.ar      1 <0>         0.1122
      4 C4          0.6201    1.3967    2.0734 C.ar      1 <0>        -0.1811
      5 C5          1.5267    2.4062    1.7040 C.ar      1 <0>        -0.1350
      6 C6          2.3084    3.0026    2.6789 C.ar      1 <0>        -0.1556
      7 S1          1.6658    2.9067    0.0203 S.3       1 <0>         0.3154
      8 C7          3.0111    4.0446    0.0237 C.ar      1 <0>        -0.3277
      9 C8          2.7707    5.4040    0.1799 C.ar      1 <0>        -0.0435
     10 C9          3.8253    6.2949    0.1873 C.ar      1 <0>        -0.1968
     11 C10         5.1255    5.8334    0.0280 C.ar      1 <0>         0.0794
     12 C11         5.3655    4.4750   -0.1335 C.ar      1 <0>        -0.1638
     13 C12         4.3117    3.5832   -0.1357 C.ar      1 <0>        -0.0451
     14 N1          6.1939    6.7374    0.0297 N.pl3     1 <0>        -0.1906
     15 C13         7.1804    6.3852    1.0613 C.3       1 <0>        -0.1088
     16 C14         8.3574    7.3615    0.9887 C.3       1 <0>        -0.0143
     17 O1          7.8714    8.6983    1.1382 O.3       1 <0>        -0.2704
     18 C15         6.9091    9.0749    0.1495 C.3       1 <0>        -0.0137
     19 C16         5.7174    8.1160    0.2136 C.3       1 <0>        -0.1218
     20 C17        -0.2058    0.7484    1.1268 C.ar      1 <0>         0.3201
     21 N2         -1.0305   -0.1979    1.5540 N.ar      1 <0>        -0.2922
     22 C18        -1.0929   -0.5344    2.8392 C.ar      1 <0>         0.3311
     23 N3         -1.9742   -1.5292    3.2218 N.pl3     1 <0>        -0.3456
     24 N4         -0.1509    1.0878   -0.2086 N.pl3     1 <0>        -0.3491
     25 H1          2.8223    3.0903    4.7509 H         1 <0>         0.1631
     26 H2          1.2531    1.3533    5.4278 H         1 <0>         0.1575
     27 H3          3.0071    3.7786    2.4034 H         1 <0>         0.1719
     28 H4          1.7593    5.7633    0.2997 H         1 <0>         0.1444
     29 H5          3.6388    7.3512    0.3132 H         1 <0>         0.1555
     30 H6          6.3766    4.1164   -0.2577 H         1 <0>         0.1551
     31 H7          4.4984    2.5269   -0.2609 H         1 <0>         0.1458
     32 H8          6.7159    6.4476    2.0454 H         1 <0>         0.0787
     33 H9          7.5386    5.3700    0.8908 H         1 <0>         0.1048
     34 H10         8.8548    7.2609    0.0241 H         1 <0>         0.0874
     35 H11         9.0648    7.1399    1.7879 H         1 <0>         0.1204
     36 H12         7.3645    9.0241   -0.8395 H         1 <0>         0.0880
     37 H13         6.5683   10.0923    0.3414 H         1 <0>         0.1212
     38 H14         5.0077    8.3641   -0.5756 H         1 <0>         0.1103
     39 H15         5.2289    8.2058    1.1838 H         1 <0>         0.0786
     40 H16        -2.5306   -1.9659    2.5580 H         1 <0>         0.2786
     41 H17        -2.0359   -1.7903    4.1540 H         1 <0>         0.2515
     42 H18        -0.1248    2.0212   -0.4712 H         1 <0>         0.2706
     43 H19        -0.1345    0.3930   -0.8853 H         1 <0>         0.2636
     44 N5         -0.3554    0.0211    3.8323 N.ar      1 <0>        -0.2365
     45 H20        -0.4674   -0.2943    4.7746 H         1 <0>         0.2870
@<TRIPOS>BOND
     1    1    6 ar
     2    1    2 ar
     3    1   25 1
     4    2    3 ar
     5    2   26 1
     6    3    4 ar
     7    3   44 ar
     8    4    5 ar
     9    4   20 ar
    10    5    6 ar
    11    5    7 1
    12    6   27 1
    13    7    8 1
    14    8   13 ar
    15    8    9 ar
    16    9   10 ar
    17    9   28 1
    18   10   11 ar
    19   10   29 1
    20   11   12 ar
    21   11   14 1
    22   12   13 ar
    23   12   30 1
    24   13   31 1
    25   14   19 1
    26   14   15 1
    27   15   16 1
    28   15   32 1
    29   15   33 1
    30   16   17 1
    31   16   34 1
    32   16   35 1
    33   17   18 1
    34   18   19 1
    35   18   36 1
    36   18   37 1
    37   19   38 1
    38   19   39 1
    39   20   21 ar
    40   20   24 1
    41   21   22 ar
    42   22   23 1
    43   22   44 ar
    44   23   40 1
    45   23   41 1
    46   24   42 1
    47   24   43 1
    48   44   45 1
@<TRIPOS>MOLECULE
ZINC03873764
   40    41     0     0     0
SMALL
USER_CHARGES

@<TRIPOS>ATOM
      1 C1          1.8319   -0.7526   -0.5823 C.3       1 <0>        -0.2354
      2 C2          0.4363   -0.1849   -0.5512 C.2       1 <0>         0.3025
      3 O1         -0.4852   -0.8142   -1.0266 O.2       1 <0>        -0.3558
      4 N1          0.2120    1.0222    0.0049 N.am      1 <0>        -0.3290
      5 C3         -1.0687    1.5867   -0.0400 C.ar      1 <0>         0.0496
      6 C4         -1.2174    2.9613   -0.1715 C.ar      1 <0>        -0.1277
      7 C5         -2.4796    3.5174   -0.2206 C.ar      1 <0>        -0.1507
      8 C6         -3.6015    2.7031   -0.1281 C.ar      1 <0>         0.0243
      9 C7         -3.4524    1.3285    0.0088 C.ar      1 <0>        -0.1382
     10 C8         -2.1901    0.7724    0.0529 C.ar      1 <0>        -0.0948
     11 N2         -4.8806    3.2668   -0.1734 N.pl3     1 <0>        -0.2215
     12 C9         -5.0249    4.5991   -0.3061 C.2       1 <0>         0.1578
     13 C10        -6.2880    5.1697   -0.2437 C.2       1 <0>        -0.3755
     14 C11        -7.4998    4.3437   -0.1630 C.2       1 <0>         0.2674
     15 N3         -8.6744    4.9501   -0.1057 N.2       1 <0>        -0.3482
     16 C12        -8.7859    6.2755   -0.1191 C.2       1 <0>         0.3829
     17 O2         -9.9022    6.7604   -0.0628 O.2       1 <0>        -0.3382
     18 N4         -7.7361    7.1069   -0.1907 N.am      1 <0>        -0.3219
     19 C13        -6.4735    6.6319   -0.2492 C.2       1 <0>         0.3845
     20 O3         -5.5201    7.3862   -0.3088 O.2       1 <0>        -0.3633
     21 C14        -7.9625    8.5543   -0.1994 C.3       1 <0>         0.0155
     22 C15        -7.9601    9.0716    1.2160 C.2       1 <0>        -0.1857
     23 C16        -7.1494   10.0425    1.5572 C.2       1 <0>        -0.2047
     24 O4         -7.4171    2.9966   -0.1481 O.3       1 <0>        -0.2755
     25 H1          2.5204   -0.0502   -0.1124 H         1 <0>         0.0796
     26 H2          1.8516   -1.6982   -0.0405 H         1 <0>         0.1158
     27 H3          2.1331   -0.9200   -1.6164 H         1 <0>         0.1182
     28 H4          0.9369    1.4981    0.4396 H         1 <0>         0.2352
     29 H5         -0.3453    3.5948   -0.2392 H         1 <0>         0.1400
     30 H6         -2.5952    4.5859   -0.3270 H         1 <0>         0.1421
     31 H7         -4.3243    0.6953    0.0810 H         1 <0>         0.1427
     32 H8         -2.0742   -0.2961    0.1593 H         1 <0>         0.1750
     33 H9         -5.6638    2.6981   -0.1092 H         1 <0>         0.2720
     34 H10        -4.1574    5.2235   -0.4611 H         1 <0>         0.1882
     35 H11        -7.1698    9.0427   -0.7661 H         1 <0>         0.1112
     36 H12        -8.9255    8.7686   -0.6629 H         1 <0>         0.1250
     37 H13        -8.6267    8.6420    1.9492 H         1 <0>         0.1351
     38 H14        -7.1477   10.4132    2.5715 H         1 <0>         0.1121
     39 H15        -6.4828   10.4721    0.8240 H         1 <0>         0.1149
     40 H16        -8.2733    2.5506   -0.0931 H         1 <0>         0.2747
@<TRIPOS>BOND
     1    1    2 1
     2    1   25 1
     3    1   26 1
     4    1   27 1
     5    2    3 2
     6    2    4 am
     7    4    5 1
     8    4   28 1
     9    5   10 ar
    10    5    6 ar
    11    6    7 ar
    12    6   29 1
    13    7    8 ar
    14    7   30 1
    15    8    9 ar
    16    8   11 1
    17    9   10 ar
    18    9   31 1
    19   10   32 1
    20   11   12 1
    21   11   33 1
    22   12   13 2
    23   12   34 1
    24   13   19 1
    25   13   14 1
    26   14   15 2
    27   14   24 1
    28   15   16 1
    29   16   17 2
    30   16   18 am
    31   18   19 am
    32   18   21 1
    33   19   20 2
    34   21   22 1
    35   21   35 1
    36   21   36 1
    37   22   23 2
    38   22   37 1
    39   23   38 1
    40   23   39 1
    41   24   40 1
@<TRIPOS>MOLECULE
ZINC03878226
   43    44     0     0     0
SMALL
USER_CHARGES

@<TRIPOS>ATOM
      1 C1          6.4504    9.9182    2.4456 C.3       1 <0>        -0.2097
      2 C2          5.7344    8.7954    1.6921 C.3       1 <0>        -0.1605
      3 C3          6.5078    7.4874    1.8709 C.3       1 <0>        -0.1760
      4 C4          5.7918    6.3646    1.1174 C.3       1 <0>        -0.0194
      5 N1          6.5323    5.1121    1.2885 N.pl3     1 <0>        -0.3418
      6 C5          6.0687    3.9392    0.6883 C.ar      1 <0>         0.2163
      7 C6          4.9758    3.9804   -0.1683 C.ar      1 <0>        -0.2424
      8 C7          4.5233    2.8197   -0.7641 C.ar      1 <0>         0.0517
      9 C8          5.1499    1.6154   -0.5000 C.ar      1 <0>        -0.8287
     10 C9          6.2379    1.5708    0.3520 C.ar      1 <0>         0.0861
     11 C10         6.6992    2.7289    0.9469 C.ar      1 <0>        -0.2219
     12 N2          7.8636    2.6802    1.8592 N.pl3     1 <0>         0.5651
     13 O1          8.3461    1.6070    2.1740 O.2       1 <0>        -0.3413
     14 O2          8.3393    3.7132    2.2952 O.3       1 <0>        -0.3914
     15 S1          4.5648    0.1356   -1.2567 S.o2      1 <0>         2.7694
     16 O3          5.6224   -0.8096   -1.1716 O.2       1 <0>        -0.9100
     17 O4          3.9810    0.5162   -2.4951 O.2       1 <0>        -0.9118
     18 N3          3.3347   -0.4442   -0.3118 N.pl3     1 <0>        -0.8143
     19 C11         3.5849   -0.8118    1.0123 C.ar      1 <0>         0.0467
     20 C12         2.7272   -0.3980    2.0236 C.ar      1 <0>        -0.1461
     21 C13         2.9778   -0.7629    3.3318 C.ar      1 <0>        -0.1145
     22 C14         4.0810   -1.5393    3.6354 C.ar      1 <0>        -0.1348
     23 C15         4.9369   -1.9531    2.6311 C.ar      1 <0>        -0.1043
     24 C16         4.6922   -1.5917    1.3208 C.ar      1 <0>        -0.1610
     25 H1          6.5025    9.6688    3.5054 H         1 <0>         0.0766
     26 H2          7.4592   10.0355    2.0499 H         1 <0>         0.0769
     27 H3          5.8994   10.8500    2.3183 H         1 <0>         0.0776
     28 H4          5.6823    9.0447    0.6323 H         1 <0>         0.0825
     29 H5          4.7256    8.6780    2.0878 H         1 <0>         0.0820
     30 H6          6.5599    7.2380    2.9307 H         1 <0>         0.0954
     31 H7          7.5166    7.6047    1.4752 H         1 <0>         0.0956
     32 H8          5.7397    6.6139    0.0576 H         1 <0>         0.0851
     33 H9          4.7830    6.2472    1.5131 H         1 <0>         0.0850
     34 H10         7.3445    5.0974    1.8187 H         1 <0>         0.2778
     35 H11         4.4833    4.9199   -0.3715 H         1 <0>         0.1526
     36 H12         3.6767    2.8518   -1.4338 H         1 <0>         0.1548
     37 H13         6.7279    0.6294    0.5524 H         1 <0>         0.1828
     38 H14         2.4404   -0.5285   -0.6778 H         1 <0>         0.2537
     39 H15         1.8656    0.2088    1.7872 H         1 <0>         0.1319
     40 H16         2.3116   -0.4411    4.1186 H         1 <0>         0.1327
     41 H17         4.2772   -1.8195    4.6598 H         1 <0>         0.1334
     42 H18         5.7978   -2.5592    2.8717 H         1 <0>         0.1404
     43 H19         5.3608   -1.9155    0.5369 H         1 <0>         0.1778
@<TRIPOS>BOND
     1    1    2 1
     2    1   25 1
     3    1   26 1
     4    1   27 1
     5    2    3 1
     6    2   28 1
     7    2   29 1
     8    3    4 1
     9    3   30 1
    10    3   31 1
    11    4    5 1
    12    4   32 1
    13    4   33 1
    14    5    6 1
    15    5   34 1
    16    6   11 ar
    17    6    7 ar
    18    7    8 ar
    19    7   35 1
    20    8    9 ar
    21    8   36 1
    22    9   10 ar
    23    9   15 1
    24   10   11 ar
    25   10   37 1
    26   11   12 1
    27   12   13 2
    28   12   14 1
    29   15   16 2
    30   15   17 2
    31   15   18 1
    32   18   19 1
    33   18   38 1
    34   19   24 ar
    35   19   20 ar
    36   20   21 ar
    37   20   39 1
    38   21   22 ar
    39   21   40 1
    40   22   23 ar
    41   22   41 1
    42   23   24 ar
    43   23   42 1
    44   24   43 1
@<TRIPOS>MOLECULE
ZINC03879159
   41    42     0     0     0
SMALL
USER_CHARGES

@<TRIPOS>ATOM
      1 C1         -9.8652    6.2460   -5.6536 C.3       1 <0>        -0.2114
      2 C2         -8.4891    5.7995   -5.1557 C.3       1 <0>        -0.0150
      3 O1         -7.4918    6.1831   -6.1045 O.3       1 <0>        -0.2153
      4 C3         -6.2039    5.8588   -5.8118 C.ar      1 <0>         0.0615
      5 C4         -5.1862    6.2015   -6.6897 C.ar      1 <0>        -0.1154
      6 C5         -3.8782    5.8722   -6.3935 C.ar      1 <0>        -0.1426
      7 C6         -3.5819    5.1978   -5.2162 C.ar      1 <0>         0.0844
      8 C7         -4.6022    4.8501   -4.3405 C.ar      1 <0>        -0.1617
      9 C8         -5.9090    5.1852   -4.6356 C.ar      1 <0>        -0.1756
     10 N1         -2.2565    4.8637   -4.9151 N.pl3     1 <0>        -0.3460
     11 C9         -1.9664    4.1241   -3.7661 C.ar      1 <0>         0.1852
     12 C10        -1.5170    4.7670   -2.6191 C.ar      1 <0>        -0.1687
     13 C11        -1.2362    4.0334   -1.4836 C.ar      1 <0>         0.0082
     14 C12        -1.3908    2.6589   -1.4905 C.ar      1 <0>        -0.7753
     15 C13        -1.8378    2.0159   -2.6301 C.ar      1 <0>         0.0348
     16 C14        -2.1260    2.7442   -3.7677 C.ar      1 <0>        -0.1495
     17 N2         -2.6050    2.0550   -4.9871 N.pl3     1 <0>         0.5520
     18 O2         -2.8447    0.8612   -4.9576 O.2       1 <0>        -0.3549
     19 O3         -2.7593    2.6818   -6.0200 O.3       1 <0>        -0.3325
     20 S1         -1.0243    1.7259   -0.0414 S.o2      1 <0>         2.7607
     21 O4         -1.7757    0.5232   -0.1319 O.2       1 <0>        -0.9029
     22 O5         -1.1449    2.6186    1.0576 O.2       1 <0>        -0.9040
     23 N3          0.5721    1.2943   -0.1277 N.pl3     1 <0>        -0.8816
     24 C15         1.6125    2.3252   -0.0930 C.3       1 <0>        -0.0559
     25 H1         -9.8746    7.3294   -5.7727 H         1 <0>         0.0871
     26 H2        -10.0755    5.7732   -6.6129 H         1 <0>         0.0890
     27 H3        -10.6259    5.9534   -4.9298 H         1 <0>         0.0855
     28 H4         -8.4797    4.7161   -5.0366 H         1 <0>         0.0748
     29 H5         -8.2788    6.2724   -4.1963 H         1 <0>         0.0712
     30 H6         -5.4168    6.7257   -7.6054 H         1 <0>         0.1460
     31 H7         -3.0858    6.1394   -7.0771 H         1 <0>         0.1357
     32 H8         -4.3732    4.3217   -3.4268 H         1 <0>         0.1296
     33 H9         -6.7020    4.9191   -3.9525 H         1 <0>         0.1377
     34 H10        -1.5394    5.1457   -5.5043 H         1 <0>         0.2526
     35 H11        -1.3918    5.8397   -2.6145 H         1 <0>         0.1623
     36 H12        -0.8914    4.5329   -0.5903 H         1 <0>         0.1626
     37 H13        -1.9620    0.9431   -2.6305 H         1 <0>         0.1857
     38 H14         0.8182    0.3593   -0.2052 H         1 <0>         0.2497
     39 H15         2.5929    1.8544   -0.1652 H         1 <0>         0.0946
     40 H16         1.4749    3.0085   -0.9310 H         1 <0>         0.0653
     41 H17         1.5436    2.8795    0.8429 H         1 <0>         0.0921
@<TRIPOS>BOND
     1    1    2 1
     2    1   25 1
     3    1   26 1
     4    1   27 1
     5    2    3 1
     6    2   28 1
     7    2   29 1
     8    3    4 1
     9    4    9 ar
    10    4    5 ar
    11    5    6 ar
    12    5   30 1
    13    6    7 ar
    14    6   31 1
    15    7    8 ar
    16    7   10 1
    17    8    9 ar
    18    8   32 1
    19    9   33 1
    20   10   11 1
    21   10   34 1
    22   11   16 ar
    23   11   12 ar
    24   12   13 ar
    25   12   35 1
    26   13   14 ar
    27   13   36 1
    28   14   15 ar
    29   14   20 1
    30   15   16 ar
    31   15   37 1
    32   16   17 1
    33   17   18 2
    34   17   19 1
    35   20   21 2
    36   20   22 2
    37   20   23 1
    38   23   24 1
    39   23   38 1
    40   24   39 1
    41   24   40 1
    42   24   41 1
@<TRIPOS>MOLECULE
ZINC03885399
   45    47     0     0     0
SMALL
USER_CHARGES

@<TRIPOS>ATOM
      1 C1          0.4437    5.5563   -6.6529 C.3       1 <0>        -0.0623
      2 O1          1.8590    5.4293   -6.5014 O.3       1 <0>        -0.2127
      3 C2          2.3088    4.8766   -5.3430 C.ar      1 <0>         0.0808
      4 C3          3.6704    4.8218   -5.0842 C.ar      1 <0>        -0.1374
      5 C4          4.1281    4.2603   -3.9084 C.ar      1 <0>        -0.1078
      6 C5          3.2248    3.7509   -2.9849 C.ar      1 <0>         0.0396
      7 C6          1.8621    3.8015   -3.2472 C.ar      1 <0>        -0.1366
      8 C7          1.4058    4.3685   -4.4210 C.ar      1 <0>        -0.1932
      9 N1          3.6877    3.1819   -1.7932 N.pl3     1 <0>        -0.8056
     10 S1          2.9747    3.5817   -0.3530 S.o2      1 <0>         2.7760
     11 O2          2.8551    4.9976   -0.3384 O.2       1 <0>        -0.9158
     12 O3          3.6712    2.8655    0.6576 O.2       1 <0>        -0.8957
     13 C8          1.3348    2.9381   -0.3871 C.ar      1 <0>        -0.6889
     14 C9          0.2546    3.7980   -0.3511 C.ar      1 <0>        -0.1128
     15 C10        -1.0376    3.2909   -0.3775 C.ar      1 <0>         0.0963
     16 C11        -1.2439    1.9192   -0.4463 C.ar      1 <0>        -0.1523
     17 C12        -0.1640    1.0593   -0.4765 C.ar      1 <0>        -0.1372
     18 C13         1.1285    1.5666   -0.4496 C.ar      1 <0>         0.0335
     19 N2          2.2235    0.6949   -0.4861 N.pl3     1 <0>        -0.2062
     20 C14         2.1214   -0.3329    0.5813 C.3       1 <0>        -0.0803
     21 C15         3.0590   -1.4596    0.0793 C.3       1 <0>        -0.1647
     22 C16         2.8206   -1.4529   -1.4481 C.3       1 <0>        -0.1726
     23 C17         2.2644   -0.0516   -1.7622 C.3       1 <0>        -0.0897
     24 N3         -2.1325    4.1625   -0.3411 N.pl3     1 <0>        -0.4210
     25 H1         -0.0172    4.5699   -6.6006 H         1 <0>         0.0656
     26 H2          0.0479    6.1850   -5.8553 H         1 <0>         0.0689
     27 H3          0.2209    6.0108   -7.6182 H         1 <0>         0.1076
     28 H4          4.3728    5.2180   -5.8025 H         1 <0>         0.1461
     29 H5          5.1883    4.2177   -3.7070 H         1 <0>         0.1405
     30 H6          1.1591    3.4012   -2.5317 H         1 <0>         0.1477
     31 H7          0.3458    4.4119   -4.6232 H         1 <0>         0.1369
     32 H8          4.4261    2.5532   -1.8108 H         1 <0>         0.2541
     33 H9          0.4151    4.8649   -0.3028 H         1 <0>         0.1611
     34 H10        -2.2490    1.5249   -0.4720 H         1 <0>         0.1323
     35 H11        -0.3245   -0.0076   -0.5255 H         1 <0>         0.1382
     36 H12         2.4732    0.0648    1.5332 H         1 <0>         0.1211
     37 H13         1.0973   -0.6954    0.6696 H         1 <0>         0.0649
     38 H14         2.7736   -2.4194    0.5100 H         1 <0>         0.0865
     39 H15         4.0989   -1.2268    0.3084 H         1 <0>         0.1035
     40 H16         2.0940   -2.2182   -1.7210 H         1 <0>         0.0829
     41 H17         3.7591   -1.6149   -1.9782 H         1 <0>         0.0915
     42 H18         1.2594   -0.1352   -2.1759 H         1 <0>         0.0697
     43 H19         2.9161    0.4595   -2.4708 H         1 <0>         0.1022
     44 H20        -1.9884    5.1207   -0.2974 H         1 <0>         0.2248
     45 H21        -3.0353    3.8082   -0.3595 H         1 <0>         0.2204
@<TRIPOS>BOND
     1    1    2 1
     2    1   25 1
     3    1   26 1
     4    1   27 1
     5    2    3 1
     6    3    8 ar
     7    3    4 ar
     8    4    5 ar
     9    4   28 1
    10    5    6 ar
    11    5   29 1
    12    6    7 ar
    13    6    9 1
    14    7    8 ar
    15    7   30 1
    16    8   31 1
    17    9   10 1
    18    9   32 1
    19   10   11 2
    20   10   12 2
    21   10   13 1
    22   13   18 ar
    23   13   14 ar
    24   14   15 ar
    25   14   33 1
    26   15   16 ar
    27   15   24 1
    28   16   17 ar
    29   16   34 1
    30   17   18 ar
    31   17   35 1
    32   18   19 1
    33   19   23 1
    34   19   20 1
    35   20   21 1
    36   20   36 1
    37   20   37 1
    38   21   22 1
    39   21   38 1
    40   21   39 1
    41   22   23 1
    42   22   40 1
    43   22   41 1
    44   23   42 1
    45   23   43 1
    46   24   44 1
    47   24   45 1
@<TRIPOS>MOLECULE
ZINC03885399
   47    49     0     0     0
SMALL
USER_CHARGES

@<TRIPOS>ATOM
      1 C1          0.4437    5.5563   -6.6529 C.3       1 <0>        -0.0660
      2 O1          1.8590    5.4293   -6.5014 O.3       1 <0>        -0.1793
      3 C2          2.3088    4.8766   -5.3430 C.ar      1 <0>         0.1299
      4 C3          3.6704    4.8218   -5.0842 C.ar      1 <0>        -0.1096
      5 C4          4.1281    4.2603   -3.9084 C.ar      1 <0>        -0.0688
      6 C5          3.2248    3.7509   -2.9849 C.ar      1 <0>        -0.0161
      7 C6          1.8621    3.8015   -3.2472 C.ar      1 <0>        -0.1613
      8 C7          1.4058    4.3685   -4.4210 C.ar      1 <0>        -0.2051
      9 N1          3.6877    3.1819   -1.7932 N.pl3     1 <0>        -0.8124
     10 S1          2.9747    3.5817   -0.3530 S.o2      1 <0>         2.7139
     11 O2          2.8551    4.9976   -0.3384 O.2       1 <0>        -0.8148
     12 O3          3.6712    2.8655    0.6576 O.2       1 <0>        -0.8788
     13 C8          1.3348    2.9381   -0.3871 C.ar      1 <0>        -0.7050
     14 C9          0.2546    3.7980   -0.3511 C.ar      1 <0>         0.0238
     15 C10        -1.0376    3.2909   -0.3775 C.ar      1 <0>        -0.1176
     16 C11        -1.2439    1.9192   -0.4463 C.ar      1 <0>        -0.0344
     17 C12        -0.1640    1.0593   -0.4765 C.ar      1 <0>        -0.0971
     18 C13         1.1285    1.5666   -0.4496 C.ar      1 <0>         0.0210
     19 C14         2.1214   -0.3329    0.5813 C.3       1 <0>        -0.1340
     20 C15         3.0590   -1.4596    0.0793 C.3       1 <0>        -0.1786
     21 C16         2.8206   -1.4529   -1.4481 C.3       1 <0>        -0.1815
     22 C17         2.2644   -0.0516   -1.7622 C.3       1 <0>        -0.1444
     23 H1         -0.0172    4.5699   -6.6006 H         1 <0>         0.0637
     24 H2          0.0479    6.1850   -5.8553 H         1 <0>         0.0645
     25 H3          0.2209    6.0108   -7.6182 H         1 <0>         0.1423
     26 H4          4.3728    5.2180   -5.8025 H         1 <0>         0.1820
     27 H5          5.1883    4.2177   -3.7070 H         1 <0>         0.1637
     28 H6          1.1591    3.4012   -2.5317 H         1 <0>         0.0816
     29 H7          0.3458    4.4119   -4.6232 H         1 <0>         0.1363
     30 H8          4.4261    2.5532   -1.8108 H         1 <0>         0.2586
     31 H9          0.4151    4.8649   -0.3028 H         1 <0>         0.2061
     32 H10        -2.2490    1.5249   -0.4720 H         1 <0>         0.1850
     33 H11        -0.3245   -0.0076   -0.5255 H         1 <0>         0.1895
     34 H12         2.4732    0.0648    1.5332 H         1 <0>         0.1755
     35 H13         1.0973   -0.6954    0.6696 H         1 <0>         0.1436
     36 H14         2.7736   -2.4194    0.5100 H         1 <0>         0.1612
     37 H15         4.0989   -1.2268    0.3084 H         1 <0>         0.1368
     38 H16         2.0940   -2.2182   -1.7210 H         1 <0>         0.1389
     39 H17         3.7591   -1.6149   -1.9782 H         1 <0>         0.1483
     40 H18         1.2594   -0.1352   -2.1759 H         1 <0>         0.1435
     41 H19         2.9161    0.4595   -2.4708 H         1 <0>         0.1576
     42 H20        -1.9884    5.1207   -0.2974 H         1 <0>         0.2803
     43 H21        -3.0353    3.8082   -0.3595 H         1 <0>         0.2768
     44 N2          2.2316    0.6757   -0.4879 N.4       1 <0>         0.0487
     45 H22         3.0994    1.2121   -0.3714 H         1 <0>         0.2687
     46 N3         -2.1357    4.1782   -0.6198 N.4       1 <0>         0.0065
     47 H23        -2.2023    4.2796   -1.6394 H         1 <0>         0.2564
@<TRIPOS>BOND
     1    1    2 1
     2    1   23 1
     3    1   24 1
     4    1   25 1
     5    2    3 1
     6    3    8 ar
     7    3    4 ar
     8    4    5 ar
     9    4   26 1
    10    5    6 ar
    11    5   27 1
    12    6    7 ar
    13    6    9 1
    14    7    8 ar
    15    7   28 1
    16    8   29 1
    17    9   10 1
    18    9   30 1
    19   10   11 2
    20   10   12 2
    21   10   13 1
    22   13   18 ar
    23   13   14 ar
    24   14   15 ar
    25   14   31 1
    26   15   16 ar
    27   15   46 1
    28   16   17 ar
    29   16   32 1
    30   17   18 ar
    31   17   33 1
    32   18   44 1
    33   19   20 1
    34   19   34 1
    35   19   35 1
    36   19   44 1
    37   20   21 1
    38   20   36 1
    39   20   37 1
    40   21   22 1
    41   21   38 1
    42   21   39 1
    43   22   40 1
    44   22   41 1
    45   22   44 1
    46   42   46 1
    47   43   46 1
    48   44   45 1
    49   46   47 1
@<TRIPOS>MOLECULE
ZINC03885399
   46    48     0     0     0
SMALL
USER_CHARGES

@<TRIPOS>ATOM
      1 C1          0.4437    5.5563   -6.6529 C.3       1 <0>        -0.0620
      2 O1          1.8590    5.4293   -6.5014 O.3       1 <0>        -0.1968
      3 C2          2.3088    4.8766   -5.3430 C.ar      1 <0>         0.1001
      4 C3          3.6704    4.8218   -5.0842 C.ar      1 <0>        -0.1209
      5 C4          4.1281    4.2603   -3.9084 C.ar      1 <0>        -0.0900
      6 C5          3.2248    3.7509   -2.9849 C.ar      1 <0>         0.0304
      7 C6          1.8621    3.8015   -3.2472 C.ar      1 <0>        -0.1568
      8 C7          1.4058    4.3685   -4.4210 C.ar      1 <0>        -0.2048
      9 N1          3.6877    3.1819   -1.7932 N.pl3     1 <0>        -0.7985
     10 S1          2.9747    3.5817   -0.3530 S.o2      1 <0>         2.7652
     11 O2          2.8551    4.9976   -0.3384 O.2       1 <0>        -0.8946
     12 O3          3.6712    2.8655    0.6576 O.2       1 <0>        -0.8615
     13 C8          1.3348    2.9381   -0.3871 C.ar      1 <0>        -0.7128
     14 C9          0.2546    3.7980   -0.3511 C.ar      1 <0>         0.0062
     15 C10        -1.0376    3.2909   -0.3775 C.ar      1 <0>        -0.1903
     16 C11        -1.2439    1.9192   -0.4463 C.ar      1 <0>        -0.0540
     17 C12        -0.1640    1.0593   -0.4765 C.ar      1 <0>        -0.1575
     18 C13         1.1285    1.5666   -0.4496 C.ar      1 <0>         0.1684
     19 N2          2.2235    0.6949   -0.4861 N.pl3     1 <0>        -0.2207
     20 C14         2.1214   -0.3329    0.5813 C.3       1 <0>        -0.0855
     21 C15         3.0590   -1.4596    0.0793 C.3       1 <0>        -0.1599
     22 C16         2.8206   -1.4529   -1.4481 C.3       1 <0>        -0.1713
     23 C17         2.2644   -0.0516   -1.7622 C.3       1 <0>        -0.0903
     24 H1         -0.0172    4.5699   -6.6006 H         1 <0>         0.0628
     25 H2          0.0479    6.1850   -5.8553 H         1 <0>         0.0606
     26 H3          0.2209    6.0108   -7.6182 H         1 <0>         0.1241
     27 H4          4.3728    5.2180   -5.8025 H         1 <0>         0.1633
     28 H5          5.1883    4.2177   -3.7070 H         1 <0>         0.1543
     29 H6          1.1591    3.4012   -2.5317 H         1 <0>         0.1075
     30 H7          0.3458    4.4119   -4.6232 H         1 <0>         0.1267
     31 H8          4.4261    2.5532   -1.8108 H         1 <0>         0.2664
     32 H9          0.4151    4.8649   -0.3028 H         1 <0>         0.1779
     33 H10        -2.2490    1.5249   -0.4720 H         1 <0>         0.1503
     34 H11        -0.3245   -0.0076   -0.5255 H         1 <0>         0.1768
     35 H12         2.4732    0.0648    1.5332 H         1 <0>         0.1336
     36 H13         1.0973   -0.6954    0.6696 H         1 <0>         0.0656
     37 H14         2.7736   -2.4194    0.5100 H         1 <0>         0.1058
     38 H15         4.0989   -1.2268    0.3084 H         1 <0>         0.1173
     39 H16         2.0940   -2.2182   -1.7210 H         1 <0>         0.0950
     40 H17         3.7591   -1.6149   -1.9782 H         1 <0>         0.1105
     41 H18         1.2594   -0.1352   -2.1759 H         1 <0>         0.0666
     42 H19         2.9161    0.4595   -2.4708 H         1 <0>         0.1169
     43 H20        -1.9884    5.1207   -0.2974 H         1 <0>         0.2608
     44 H21        -3.0353    3.8082   -0.3595 H         1 <0>         0.2563
     45 N3         -2.1357    4.1782   -0.6198 N.4       1 <0>         0.0224
     46 H22        -2.2023    4.2796   -1.6394 H         1 <0>         0.2363
@<TRIPOS>BOND
     1    1    2 1
     2    1   24 1
     3    1   25 1
     4    1   26 1
     5    2    3 1
     6    3    8 ar
     7    3    4 ar
     8    4    5 ar
     9    4   27 1
    10    5    6 ar
    11    5   28 1
    12    6    7 ar
    13    6    9 1
    14    7    8 ar
    15    7   29 1
    16    8   30 1
    17    9   10 1
    18    9   31 1
    19   10   11 2
    20   10   12 2
    21   10   13 1
    22   13   18 ar
    23   13   14 ar
    24   14   15 ar
    25   14   32 1
    26   15   16 ar
    27   15   45 1
    28   16   17 ar
    29   16   33 1
    30   17   18 ar
    31   17   34 1
    32   18   19 1
    33   19   23 1
    34   19   20 1
    35   20   21 1
    36   20   35 1
    37   20   36 1
    38   21   22 1
    39   21   37 1
    40   21   38 1
    41   22   23 1
    42   22   39 1
    43   22   40 1
    44   23   41 1
    45   23   42 1
    46   43   45 1
    47   44   45 1
    48   45   46 1
@<TRIPOS>MOLECULE
ZINC03885399
   46    48     0     0     0
SMALL
USER_CHARGES

@<TRIPOS>ATOM
      1 C1          0.4437    5.5563   -6.6529 C.3       1 <0>        -0.0660
      2 O1          1.8590    5.4293   -6.5014 O.3       1 <0>        -0.1966
      3 C2          2.3088    4.8766   -5.3430 C.ar      1 <0>         0.1114
      4 C3          3.6704    4.8218   -5.0842 C.ar      1 <0>        -0.1272
      5 C4          4.1281    4.2603   -3.9084 C.ar      1 <0>        -0.0856
      6 C5          3.2248    3.7509   -2.9849 C.ar      1 <0>        -0.0056
      7 C6          1.8621    3.8015   -3.2472 C.ar      1 <0>        -0.1426
      8 C7          1.4058    4.3685   -4.4210 C.ar      1 <0>        -0.1943
      9 N1          3.6877    3.1819   -1.7932 N.pl3     1 <0>        -0.8227
     10 S1          2.9747    3.5817   -0.3530 S.o2      1 <0>         2.7348
     11 O2          2.8551    4.9976   -0.3384 O.2       1 <0>        -0.8411
     12 O3          3.6712    2.8655    0.6576 O.2       1 <0>        -0.9141
     13 C8          1.3348    2.9381   -0.3871 C.ar      1 <0>        -0.6823
     14 C9          0.2546    3.7980   -0.3511 C.ar      1 <0>        -0.0861
     15 C10        -1.0376    3.2909   -0.3775 C.ar      1 <0>         0.1505
     16 C11        -1.2439    1.9192   -0.4463 C.ar      1 <0>        -0.1543
     17 C12        -0.1640    1.0593   -0.4765 C.ar      1 <0>        -0.0632
     18 C13         1.1285    1.5666   -0.4496 C.ar      1 <0>        -0.1392
     19 C14         2.1214   -0.3329    0.5813 C.3       1 <0>        -0.1257
     20 C15         3.0590   -1.4596    0.0793 C.3       1 <0>        -0.1862
     21 C16         2.8206   -1.4529   -1.4481 C.3       1 <0>        -0.1851
     22 C17         2.2644   -0.0516   -1.7622 C.3       1 <0>        -0.1391
     23 N2         -2.1325    4.1625   -0.3411 N.pl3     1 <0>        -0.3768
     24 H1         -0.0172    4.5699   -6.6006 H         1 <0>         0.0661
     25 H2          0.0479    6.1850   -5.8553 H         1 <0>         0.0721
     26 H3          0.2209    6.0108   -7.6182 H         1 <0>         0.1257
     27 H4          4.3728    5.2180   -5.8025 H         1 <0>         0.1648
     28 H5          5.1883    4.2177   -3.7070 H         1 <0>         0.1498
     29 H6          1.1591    3.4012   -2.5317 H         1 <0>         0.1236
     30 H7          0.3458    4.4119   -4.6232 H         1 <0>         0.1459
     31 H8          4.4261    2.5532   -1.8108 H         1 <0>         0.2456
     32 H9          0.4151    4.8649   -0.3028 H         1 <0>         0.1879
     33 H10        -2.2490    1.5249   -0.4720 H         1 <0>         0.1654
     34 H11        -0.3245   -0.0076   -0.5255 H         1 <0>         0.1492
     35 H12         2.4732    0.0648    1.5332 H         1 <0>         0.1640
     36 H13         1.0973   -0.6954    0.6696 H         1 <0>         0.1444
     37 H14         2.7736   -2.4194    0.5100 H         1 <0>         0.1425
     38 H15         4.0989   -1.2268    0.3084 H         1 <0>         0.1231
     39 H16         2.0940   -2.2182   -1.7210 H         1 <0>         0.1270
     40 H17         3.7591   -1.6149   -1.9782 H         1 <0>         0.1298
     41 H18         1.2594   -0.1352   -2.1759 H         1 <0>         0.1481
     42 H19         2.9161    0.4595   -2.4708 H         1 <0>         0.1441
     43 H20        -1.9884    5.1207   -0.2974 H         1 <0>         0.2447
     44 H21        -3.0353    3.8082   -0.3595 H         1 <0>         0.2421
     45 N3          2.2316    0.6757   -0.4879 N.4       1 <0>         0.0785
     46 H22         3.0994    1.2121   -0.3714 H         1 <0>         0.2527
@<TRIPOS>BOND
     1    1    2 1
     2    1   24 1
     3    1   25 1
     4    1   26 1
     5    2    3 1
     6    3    8 ar
     7    3    4 ar
     8    4    5 ar
     9    4   27 1
    10    5    6 ar
    11    5   28 1
    12    6    7 ar
    13    6    9 1
    14    7    8 ar
    15    7   29 1
    16    8   30 1
    17    9   10 1
    18    9   31 1
    19   10   11 2
    20   10   12 2
    21   10   13 1
    22   13   18 ar
    23   13   14 ar
    24   14   15 ar
    25   14   32 1
    26   15   16 ar
    27   15   23 1
    28   16   17 ar
    29   16   33 1
    30   17   18 ar
    31   17   34 1
    32   18   45 1
    33   19   20 1
    34   19   35 1
    35   19   36 1
    36   19   45 1
    37   20   21 1
    38   20   37 1
    39   20   38 1
    40   21   22 1
    41   21   39 1
    42   21   40 1
    43   22   41 1
    44   22   42 1
    45   22   45 1
    46   23   43 1
    47   23   44 1
    48   45   46 1
@<TRIPOS>MOLECULE
ZINC03885403
   48    50     0     0     0
SMALL
USER_CHARGES

@<TRIPOS>ATOM
      1 C1         -0.3636    6.3804   -6.0945 C.3       1 <0>        -0.0625
      2 O1          1.0625    6.4354   -6.0214 O.3       1 <0>        -0.2127
      3 C2          1.6499    5.8304   -4.9544 C.ar      1 <0>         0.0809
      4 C3          3.0201    5.9346   -4.7662 C.ar      1 <0>        -0.1375
      5 C4          3.6175    5.3202   -3.6831 C.ar      1 <0>        -0.1076
      6 C5          2.8458    4.5983   -2.7822 C.ar      1 <0>         0.0403
      7 C6          1.4748    4.4901   -2.9743 C.ar      1 <0>        -0.1366
      8 C7          0.8783    5.1100   -4.0547 C.ar      1 <0>        -0.1937
      9 N1          3.4503    3.9755   -1.6845 N.pl3     1 <0>        -0.8041
     10 S1          2.7832    4.1259   -0.1763 S.o2      1 <0>         2.7776
     11 O2          2.4825    5.5036   -0.0008 O.2       1 <0>        -0.9159
     12 O3          3.6285    3.4112    0.7148 O.2       1 <0>        -0.9001
     13 C8          1.2415    3.2732   -0.2010 C.ar      1 <0>        -0.6913
     14 C9          0.0634    3.9710   -0.0208 C.ar      1 <0>        -0.1130
     15 C10        -1.1514    3.2990   -0.0399 C.ar      1 <0>         0.0960
     16 C11        -1.1821    1.9258   -0.2454 C.ar      1 <0>        -0.1525
     17 C12        -0.0040    1.2274   -0.4203 C.ar      1 <0>        -0.1355
     18 C13         1.2111    1.8996   -0.4012 C.ar      1 <0>         0.0412
     19 N2          2.4054    1.1922   -0.5834 N.pl3     1 <0>        -0.2306
     20 C14         2.4194    0.5091   -1.8833 C.3       1 <0>        -0.0714
     21 C15         3.7909   -0.1308   -2.1101 C.3       1 <0>        -0.1560
     22 C16         4.0752   -1.1294   -0.9847 C.3       1 <0>        -0.1637
     23 C17         4.0070   -0.4025    0.3613 C.3       1 <0>        -0.1582
     24 C18         2.6292    0.2452    0.5165 C.3       1 <0>        -0.0583
     25 N3         -2.3456    4.0064    0.1428 N.pl3     1 <0>        -0.4211
     26 H1         -0.7918    6.9276   -5.2546 H         1 <0>         0.0690
     27 H2         -0.6972    6.8306   -7.0294 H         1 <0>         0.1074
     28 H3         -0.6896    5.3410   -6.0551 H         1 <0>         0.0659
     29 H4          3.6201    6.4961   -5.4670 H         1 <0>         0.1460
     30 H5          4.6844    5.4014   -3.5367 H         1 <0>         0.1404
     31 H6          0.8746    3.9249   -2.2767 H         1 <0>         0.1477
     32 H7         -0.1886    5.0296   -4.2018 H         1 <0>         0.1371
     33 H8          4.2600    3.4556   -1.8070 H         1 <0>         0.2539
     34 H9          0.0870    5.0395    0.1346 H         1 <0>         0.1609
     35 H10        -2.1273    1.4037   -0.2646 H         1 <0>         0.1323
     36 H11        -0.0277    0.1590   -0.5763 H         1 <0>         0.1378
     37 H12         1.6513   -0.2642   -1.8954 H         1 <0>         0.0573
     38 H13         2.2201    1.2312   -2.6751 H         1 <0>         0.0975
     39 H14         4.5580    0.6437   -2.1118 H         1 <0>         0.0924
     40 H15         3.7959   -0.6509   -3.0680 H         1 <0>         0.0825
     41 H16         5.0695   -1.5556   -1.1184 H         1 <0>         0.0828
     42 H17         3.3307   -1.9251   -1.0071 H         1 <0>         0.0764
     43 H18         4.7774    0.3676    0.3985 H         1 <0>         0.1072
     44 H19         4.1664   -1.1168    1.1691 H         1 <0>         0.0833
     45 H20         2.5822    0.7756    1.4675 H         1 <0>         0.1124
     46 H21         1.8603   -0.5270    0.4929 H         1 <0>         0.0508
     47 H22        -2.3244    4.9660    0.2826 H         1 <0>         0.2247
     48 H23        -3.1943    3.5369    0.1295 H         1 <0>         0.2204
@<TRIPOS>BOND
     1    1    2 1
     2    1   26 1
     3    1   27 1
     4    1   28 1
     5    2    3 1
     6    3    8 ar
     7    3    4 ar
     8    4    5 ar
     9    4   29 1
    10    5    6 ar
    11    5   30 1
    12    6    7 ar
    13    6    9 1
    14    7    8 ar
    15    7   31 1
    16    8   32 1
    17    9   10 1
    18    9   33 1
    19   10   11 2
    20   10   12 2
    21   10   13 1
    22   13   18 ar
    23   13   14 ar
    24   14   15 ar
    25   14   34 1
    26   15   16 ar
    27   15   25 1
    28   16   17 ar
    29   16   35 1
    30   17   18 ar
    31   17   36 1
    32   18   19 1
    33   19   24 1
    34   19   20 1
    35   20   21 1
    36   20   37 1
    37   20   38 1
    38   21   22 1
    39   21   39 1
    40   21   40 1
    41   22   23 1
    42   22   41 1
    43   22   42 1
    44   23   24 1
    45   23   43 1
    46   23   44 1
    47   24   45 1
    48   24   46 1
    49   25   47 1
    50   25   48 1
@<TRIPOS>MOLECULE
ZINC03885403
   50    52     0     0     0
SMALL
USER_CHARGES

@<TRIPOS>ATOM
      1 C1         -0.3636    6.3804   -6.0945 C.3       1 <0>        -0.0671
      2 O1          1.0625    6.4354   -6.0214 O.3       1 <0>        -0.1810
      3 C2          1.6499    5.8304   -4.9544 C.ar      1 <0>         0.1294
      4 C3          3.0201    5.9346   -4.7662 C.ar      1 <0>        -0.1124
      5 C4          3.6175    5.3202   -3.6831 C.ar      1 <0>        -0.0694
      6 C5          2.8458    4.5983   -2.7822 C.ar      1 <0>        -0.0214
      7 C6          1.4748    4.4901   -2.9743 C.ar      1 <0>        -0.1582
      8 C7          0.8783    5.1100   -4.0547 C.ar      1 <0>        -0.2008
      9 N1          3.4503    3.9755   -1.6845 N.pl3     1 <0>        -0.8107
     10 S1          2.7832    4.1259   -0.1763 S.o2      1 <0>         2.7125
     11 O2          2.4825    5.5036   -0.0008 O.2       1 <0>        -0.8159
     12 O3          3.6285    3.4112    0.7148 O.2       1 <0>        -0.8831
     13 C8          1.2415    3.2732   -0.2010 C.ar      1 <0>        -0.7117
     14 C9          0.0634    3.9710   -0.0208 C.ar      1 <0>         0.0222
     15 C10        -1.1514    3.2990   -0.0399 C.ar      1 <0>        -0.1206
     16 C11        -1.1821    1.9258   -0.2454 C.ar      1 <0>        -0.0339
     17 C12        -0.0040    1.2274   -0.4203 C.ar      1 <0>        -0.0908
     18 C13         1.2111    1.8996   -0.4012 C.ar      1 <0>         0.0190
     19 C14         2.4194    0.5091   -1.8833 C.3       1 <0>        -0.1359
     20 C15         3.7909   -0.1308   -2.1101 C.3       1 <0>        -0.1826
     21 C16         4.0752   -1.1294   -0.9847 C.3       1 <0>        -0.1789
     22 C17         4.0070   -0.4025    0.3613 C.3       1 <0>        -0.1840
     23 C18         2.6292    0.2452    0.5165 C.3       1 <0>        -0.1262
     24 H1         -0.7918    6.9276   -5.2546 H         1 <0>         0.0693
     25 H2         -0.6972    6.8306   -7.0294 H         1 <0>         0.1405
     26 H3         -0.6896    5.3410   -6.0551 H         1 <0>         0.0635
     27 H4          3.6201    6.4961   -5.4670 H         1 <0>         0.1806
     28 H5          4.6844    5.4014   -3.5367 H         1 <0>         0.1616
     29 H6          0.8746    3.9249   -2.2767 H         1 <0>         0.0859
     30 H7         -0.1886    5.0296   -4.2018 H         1 <0>         0.1428
     31 H8          4.2600    3.4556   -1.8070 H         1 <0>         0.2579
     32 H9          0.0870    5.0395    0.1346 H         1 <0>         0.2051
     33 H10        -2.1273    1.4037   -0.2646 H         1 <0>         0.1848
     34 H11        -0.0277    0.1590   -0.5763 H         1 <0>         0.1883
     35 H12         1.6513   -0.2642   -1.8954 H         1 <0>         0.1460
     36 H13         2.2201    1.2312   -2.6751 H         1 <0>         0.1476
     37 H14         4.5580    0.6437   -2.1118 H         1 <0>         0.1080
     38 H15         3.7959   -0.6509   -3.0680 H         1 <0>         0.1566
     39 H16         5.0695   -1.5556   -1.1184 H         1 <0>         0.1476
     40 H17         3.3307   -1.9251   -1.0071 H         1 <0>         0.1075
     41 H18         4.7774    0.3676    0.3985 H         1 <0>         0.1224
     42 H19         4.1664   -1.1168    1.1691 H         1 <0>         0.1576
     43 H20         2.5822    0.7756    1.4675 H         1 <0>         0.1564
     44 H21         1.8603   -0.5270    0.4929 H         1 <0>         0.1400
     45 H22        -2.3244    4.9660    0.2826 H         1 <0>         0.2789
     46 H23        -3.1943    3.5369    0.1295 H         1 <0>         0.2755
     47 N2          2.4269    1.2124   -0.5830 N.4       1 <0>         0.0503
     48 H24         3.1972    1.8912   -0.5757 H         1 <0>         0.2606
     49 N3         -2.3318    3.9684    0.4190 N.4       1 <0>         0.0054
     50 H25        -2.3409    3.8645    1.4404 H         1 <0>         0.2606
@<TRIPOS>BOND
     1    1    2 1
     2    1   24 1
     3    1   25 1
     4    1   26 1
     5    2    3 1
     6    3    8 ar
     7    3    4 ar
     8    4    5 ar
     9    4   27 1
    10    5    6 ar
    11    5   28 1
    12    6    7 ar
    13    6    9 1
    14    7    8 ar
    15    7   29 1
    16    8   30 1
    17    9   10 1
    18    9   31 1
    19   10   11 2
    20   10   12 2
    21   10   13 1
    22   13   18 ar
    23   13   14 ar
    24   14   15 ar
    25   14   32 1
    26   15   16 ar
    27   15   49 1
    28   16   17 ar
    29   16   33 1
    30   17   18 ar
    31   17   34 1
    32   18   47 1
    33   19   20 1
    34   19   35 1
    35   19   36 1
    36   19   47 1
    37   20   21 1
    38   20   37 1
    39   20   38 1
    40   21   22 1
    41   21   39 1
    42   21   40 1
    43   22   23 1
    44   22   41 1
    45   22   42 1
    46   23   43 1
    47   23   44 1
    48   23   47 1
    49   45   49 1
    50   46   49 1
    51   47   48 1
    52   49   50 1
@<TRIPOS>MOLECULE
ZINC03885403
   49    51     0     0     0
SMALL
USER_CHARGES

@<TRIPOS>ATOM
      1 C1         -0.3636    6.3804   -6.0945 C.3       1 <0>        -0.0631
      2 O1          1.0625    6.4354   -6.0214 O.3       1 <0>        -0.1984
      3 C2          1.6499    5.8304   -4.9544 C.ar      1 <0>         0.0995
      4 C3          3.0201    5.9346   -4.7662 C.ar      1 <0>        -0.1232
      5 C4          3.6175    5.3202   -3.6831 C.ar      1 <0>        -0.0910
      6 C5          2.8458    4.5983   -2.7822 C.ar      1 <0>         0.0259
      7 C6          1.4748    4.4901   -2.9743 C.ar      1 <0>        -0.1535
      8 C7          0.8783    5.1100   -4.0547 C.ar      1 <0>        -0.2011
      9 N1          3.4503    3.9755   -1.6845 N.pl3     1 <0>        -0.7953
     10 S1          2.7832    4.1259   -0.1763 S.o2      1 <0>         2.7666
     11 O2          2.4825    5.5036   -0.0008 O.2       1 <0>        -0.8954
     12 O3          3.6285    3.4112    0.7148 O.2       1 <0>        -0.8694
     13 C8          1.2415    3.2732   -0.2010 C.ar      1 <0>        -0.7147
     14 C9          0.0634    3.9710   -0.0208 C.ar      1 <0>         0.0042
     15 C10        -1.1514    3.2990   -0.0399 C.ar      1 <0>        -0.1917
     16 C11        -1.1821    1.9258   -0.2454 C.ar      1 <0>        -0.0537
     17 C12        -0.0040    1.2274   -0.4203 C.ar      1 <0>        -0.1559
     18 C13         1.2111    1.8996   -0.4012 C.ar      1 <0>         0.1756
     19 N2          2.4054    1.1922   -0.5834 N.pl3     1 <0>        -0.2436
     20 C14         2.4194    0.5091   -1.8833 C.3       1 <0>        -0.0757
     21 C15         3.7909   -0.1308   -2.1101 C.3       1 <0>        -0.1541
     22 C16         4.0752   -1.1294   -0.9847 C.3       1 <0>        -0.1670
     23 C17         4.0070   -0.4025    0.3613 C.3       1 <0>        -0.1561
     24 C18         2.6292    0.2452    0.5165 C.3       1 <0>        -0.0625
     25 H1         -0.7918    6.9276   -5.2546 H         1 <0>         0.0643
     26 H2         -0.6972    6.8306   -7.0294 H         1 <0>         0.1225
     27 H3         -0.6896    5.3410   -6.0551 H         1 <0>         0.0636
     28 H4          3.6201    6.4961   -5.4670 H         1 <0>         0.1619
     29 H5          4.6844    5.4014   -3.5367 H         1 <0>         0.1524
     30 H6          0.8746    3.9249   -2.2767 H         1 <0>         0.1111
     31 H7         -0.1886    5.0296   -4.2018 H         1 <0>         0.1329
     32 H8          4.2600    3.4556   -1.8070 H         1 <0>         0.2656
     33 H9          0.0870    5.0395    0.1346 H         1 <0>         0.1776
     34 H10        -2.1273    1.4037   -0.2646 H         1 <0>         0.1502
     35 H11        -0.0277    0.1590   -0.5763 H         1 <0>         0.1763
     36 H12         1.6513   -0.2642   -1.8954 H         1 <0>         0.0637
     37 H13         2.2201    1.2312   -2.6751 H         1 <0>         0.1021
     38 H14         4.5580    0.6437   -2.1118 H         1 <0>         0.0998
     39 H15         3.7959   -0.6509   -3.0680 H         1 <0>         0.1012
     40 H16         5.0695   -1.5556   -1.1184 H         1 <0>         0.1033
     41 H17         3.3307   -1.9251   -1.0071 H         1 <0>         0.0820
     42 H18         4.7774    0.3676    0.3985 H         1 <0>         0.1147
     43 H19         4.1664   -1.1168    1.1691 H         1 <0>         0.1017
     44 H20         2.5822    0.7756    1.4675 H         1 <0>         0.1128
     45 H21         1.8603   -0.5270    0.4929 H         1 <0>         0.0572
     46 H22        -2.3244    4.9660    0.2826 H         1 <0>         0.2598
     47 H23        -3.1943    3.5369    0.1295 H         1 <0>         0.2555
     48 N3         -2.3318    3.9684    0.4190 N.4       1 <0>         0.0213
     49 H24        -2.3409    3.8645    1.4404 H         1 <0>         0.2401
@<TRIPOS>BOND
     1    1    2 1
     2    1   25 1
     3    1   26 1
     4    1   27 1
     5    2    3 1
     6    3    8 ar
     7    3    4 ar
     8    4    5 ar
     9    4   28 1
    10    5    6 ar
    11    5   29 1
    12    6    7 ar
    13    6    9 1
    14    7    8 ar
    15    7   30 1
    16    8   31 1
    17    9   10 1
    18    9   32 1
    19   10   11 2
    20   10   12 2
    21   10   13 1
    22   13   18 ar
    23   13   14 ar
    24   14   15 ar
    25   14   33 1
    26   15   16 ar
    27   15   48 1
    28   16   17 ar
    29   16   34 1
    30   17   18 ar
    31   17   35 1
    32   18   19 1
    33   19   24 1
    34   19   20 1
    35   20   21 1
    36   20   36 1
    37   20   37 1
    38   21   22 1
    39   21   38 1
    40   21   39 1
    41   22   23 1
    42   22   40 1
    43   22   41 1
    44   23   24 1
    45   23   42 1
    46   23   43 1
    47   24   44 1
    48   24   45 1
    49   46   48 1
    50   47   48 1
    51   48   49 1
@<TRIPOS>MOLECULE
ZINC03885403
   49    51     0     0     0
SMALL
USER_CHARGES

@<TRIPOS>ATOM
      1 C1         -0.3636    6.3804   -6.0945 C.3       1 <0>        -0.0663
      2 O1          1.0625    6.4354   -6.0214 O.3       1 <0>        -0.1966
      3 C2          1.6499    5.8304   -4.9544 C.ar      1 <0>         0.1116
      4 C3          3.0201    5.9346   -4.7662 C.ar      1 <0>        -0.1275
      5 C4          3.6175    5.3202   -3.6831 C.ar      1 <0>        -0.0852
      6 C5          2.8458    4.5983   -2.7822 C.ar      1 <0>        -0.0053
      7 C6          1.4748    4.4901   -2.9743 C.ar      1 <0>        -0.1428
      8 C7          0.8783    5.1100   -4.0547 C.ar      1 <0>        -0.1946
      9 N1          3.4503    3.9755   -1.6845 N.pl3     1 <0>        -0.8231
     10 S1          2.7832    4.1259   -0.1763 S.o2      1 <0>         2.7336
     11 O2          2.4825    5.5036   -0.0008 O.2       1 <0>        -0.8411
     12 O3          3.6285    3.4112    0.7148 O.2       1 <0>        -0.9147
     13 C8          1.2415    3.2732   -0.2010 C.ar      1 <0>        -0.6885
     14 C9          0.0634    3.9710   -0.0208 C.ar      1 <0>        -0.0861
     15 C10        -1.1514    3.2990   -0.0399 C.ar      1 <0>         0.1500
     16 C11        -1.1821    1.9258   -0.2454 C.ar      1 <0>        -0.1550
     17 C12        -0.0040    1.2274   -0.4203 C.ar      1 <0>        -0.0556
     18 C13         1.2111    1.8996   -0.4012 C.ar      1 <0>        -0.1424
     19 C14         2.4194    0.5091   -1.8833 C.3       1 <0>        -0.1304
     20 C15         3.7909   -0.1308   -2.1101 C.3       1 <0>        -0.1861
     21 C16         4.0752   -1.1294   -0.9847 C.3       1 <0>        -0.1766
     22 C17         4.0070   -0.4025    0.3613 C.3       1 <0>        -0.1878
     23 C18         2.6292    0.2452    0.5165 C.3       1 <0>        -0.1198
     24 N2         -2.3456    4.0064    0.1428 N.pl3     1 <0>        -0.3775
     25 H1         -0.7918    6.9276   -5.2546 H         1 <0>         0.0734
     26 H2         -0.6972    6.8306   -7.0294 H         1 <0>         0.1254
     27 H3         -0.6896    5.3410   -6.0551 H         1 <0>         0.0655
     28 H4          3.6201    6.4961   -5.4670 H         1 <0>         0.1647
     29 H5          4.6844    5.4014   -3.5367 H         1 <0>         0.1496
     30 H6          0.8746    3.9249   -2.2767 H         1 <0>         0.1238
     31 H7         -0.1886    5.0296   -4.2018 H         1 <0>         0.1462
     32 H8          4.2600    3.4556   -1.8070 H         1 <0>         0.2455
     33 H9          0.0870    5.0395    0.1346 H         1 <0>         0.1871
     34 H10        -2.1273    1.4037   -0.2646 H         1 <0>         0.1653
     35 H11        -0.0277    0.1590   -0.5763 H         1 <0>         0.1482
     36 H12         1.6513   -0.2642   -1.8954 H         1 <0>         0.1413
     37 H13         2.2201    1.2312   -2.6751 H         1 <0>         0.1439
     38 H14         4.5580    0.6437   -2.1118 H         1 <0>         0.1006
     39 H15         3.7959   -0.6509   -3.0680 H         1 <0>         0.1382
     40 H16         5.0695   -1.5556   -1.1184 H         1 <0>         0.1279
     41 H17         3.3307   -1.9251   -1.0071 H         1 <0>         0.1015
     42 H18         4.7774    0.3676    0.3985 H         1 <0>         0.1149
     43 H19         4.1664   -1.1168    1.1691 H         1 <0>         0.1395
     44 H20         2.5822    0.7756    1.4675 H         1 <0>         0.1566
     45 H21         1.8603   -0.5270    0.4929 H         1 <0>         0.1352
     46 H22        -2.3244    4.9660    0.2826 H         1 <0>         0.2443
     47 H23        -3.1943    3.5369    0.1295 H         1 <0>         0.2420
     48 N3          2.4269    1.2124   -0.5830 N.4       1 <0>         0.0821
     49 H24         3.1972    1.8912   -0.5757 H         1 <0>         0.2450
@<TRIPOS>BOND
     1    1    2 1
     2    1   25 1
     3    1   26 1
     4    1   27 1
     5    2    3 1
     6    3    8 ar
     7    3    4 ar
     8    4    5 ar
     9    4   28 1
    10    5    6 ar
    11    5   29 1
    12    6    7 ar
    13    6    9 1
    14    7    8 ar
    15    7   30 1
    16    8   31 1
    17    9   10 1
    18    9   32 1
    19   10   11 2
    20   10   12 2
    21   10   13 1
    22   13   18 ar
    23   13   14 ar
    24   14   15 ar
    25   14   33 1
    26   15   16 ar
    27   15   24 1
    28   16   17 ar
    29   16   34 1
    30   17   18 ar
    31   17   35 1
    32   18   48 1
    33   19   20 1
    34   19   36 1
    35   19   37 1
    36   19   48 1
    37   20   21 1
    38   20   38 1
    39   20   39 1
    40   21   22 1
    41   21   40 1
    42   21   41 1
    43   22   23 1
    44   22   42 1
    45   22   43 1
    46   23   44 1
    47   23   45 1
    48   23   48 1
    49   24   46 1
    50   24   47 1
    51   48   49 1
@<TRIPOS>MOLECULE
ZINC03886810
   42    44     0     0     0
SMALL
USER_CHARGES

@<TRIPOS>ATOM
      1 C1         -5.4482   11.1872   -4.1477 C.3       1 <0>        -0.0642
      2 O1         -4.6799   10.4098   -5.0681 O.3       1 <0>        -0.2039
      3 C2         -4.4442    9.1129   -4.7343 C.ar      1 <0>         0.0715
      4 C3         -4.9430    8.6014   -3.5450 C.ar      1 <0>        -0.1581
      5 C4         -4.7040    7.2846   -3.2055 C.ar      1 <0>        -0.1130
      6 C5         -3.9638    6.4723   -4.0545 C.ar      1 <0>         0.0983
      7 C6         -3.4602    6.9864   -5.2416 C.ar      1 <0>        -0.1214
      8 C7         -3.7048    8.3022   -5.5827 C.ar      1 <0>        -0.0890
      9 N1         -2.6664    6.1229   -6.1444 N.pl3     1 <0>         0.5588
     10 O2         -2.1491    6.5959   -7.1405 O.2       1 <0>        -0.3358
     11 O3         -2.5305    4.9393   -5.8913 O.3       1 <0>        -0.3853
     12 N2         -3.7205    5.1361   -3.7103 N.am      1 <0>        -0.3217
     13 C8         -3.7291    4.7614   -2.4157 C.2       1 <0>         0.3169
     14 O4         -3.8471    5.5960   -1.5435 O.2       1 <0>        -0.3714
     15 C9         -3.5922    3.3054   -2.0517 C.3       1 <0>        -0.2060
     16 C10        -3.6322    3.1542   -0.5298 C.3       1 <0>         0.0527
     17 H1         -4.5386    3.6181   -0.1408 H         1 <0>         0.1450
     18 C11        -3.6190    1.6906   -0.1675 C.2       1 <0>         0.2962
     19 O5         -4.6678    1.0955   -0.0360 O.2       1 <0>        -0.3533
     20 N3         -2.4563    1.0378    0.0118 N.am      1 <0>        -0.3018
     21 C12        -1.2371    1.7251    0.0002 C.ar      1 <0>         0.0072
     22 C13        -0.0361    1.0344   -0.0170 C.ar      1 <0>        -0.1357
     23 C14         1.1590    1.7298   -0.0324 C.ar      1 <0>        -0.1394
     24 C15         1.1630    3.1126   -0.0253 C.ar      1 <0>        -0.1147
     25 C16        -0.0311    3.8110    0.0020 C.ar      1 <0>        -0.1584
     26 C17        -1.2303    3.1208    0.0219 C.ar      1 <0>         0.0691
     27 N4         -2.4536    3.8041    0.0725 N.pl3     1 <0>        -0.3821
     28 H2         -6.4314   10.7339   -4.0214 H         1 <0>         0.0698
     29 H3         -4.9373   11.2207   -3.1854 H         1 <0>         0.0714
     30 H4         -5.5620   12.2001   -4.5340 H         1 <0>         0.1167
     31 H5         -5.5186    9.2332   -2.8849 H         1 <0>         0.1508
     32 H6         -5.0930    6.8863   -2.2800 H         1 <0>         0.1877
     33 H7         -3.3165    8.7011   -6.5082 H         1 <0>         0.1792
     34 H8         -3.5459    4.4807   -4.4037 H         1 <0>         0.2728
     35 H9         -2.6438    2.9240   -2.4300 H         1 <0>         0.1263
     36 H10        -4.4132    2.7415   -2.4946 H         1 <0>         0.1241
     37 H11        -2.4631    0.0779    0.1512 H         1 <0>         0.2454
     38 H12        -0.0335   -0.0455   -0.0229 H         1 <0>         0.1338
     39 H13         2.0943    1.1900   -0.0504 H         1 <0>         0.1338
     40 H14         2.1004    3.6487   -0.0406 H         1 <0>         0.1338
     41 H15        -0.0272    4.8909    0.0080 H         1 <0>         0.1400
     42 H16        -2.5190    4.6805    0.4832 H         1 <0>         0.2536
@<TRIPOS>BOND
     1    1    2 1
     2    1   28 1
     3    1   29 1
     4    1   30 1
     5    2    3 1
     6    3    8 ar
     7    3    4 ar
     8    4    5 ar
     9    4   31 1
    10    5    6 ar
    11    5   32 1
    12    6    7 ar
    13    6   12 1
    14    7    8 ar
    15    7    9 1
    16    8   33 1
    17    9   10 2
    18    9   11 1
    19   12   13 am
    20   12   34 1
    21   13   14 2
    22   13   15 1
    23   15   16 1
    24   15   35 1
    25   15   36 1
    26   16   17 1
    27   16   27 1
    28   16   18 1
    29   18   19 2
    30   18   20 am
    31   20   21 1
    32   20   37 1
    33   21   26 ar
    34   21   22 ar
    35   22   23 ar
    36   22   38 1
    37   23   24 ar
    38   23   39 1
    39   24   25 ar
    40   24   40 1
    41   25   26 ar
    42   25   41 1
    43   26   27 1
    44   27   42 1
@<TRIPOS>MOLECULE
ZINC03887459
   41    43     0     0     0
SMALL
USER_CHARGES

@<TRIPOS>ATOM
      1 C1          1.1854    1.8306   -0.6995 C.3       1 <0>        -0.2515
      2 C2         -0.0130    1.2119   -0.0272 C.2       1 <0>         0.2675
      3 O1          0.0800    0.1204    0.4936 O.2       1 <0>        -0.2932
      4 C3         -1.2950    1.9278   -0.0078 C.ar      1 <0>        -0.1787
      5 C4         -1.4034    3.1908   -0.6035 C.ar      1 <0>        -0.0737
      6 C5         -2.6035    3.8531   -0.5876 C.ar      1 <0>        -0.1446
      7 C6         -3.7106    3.2772    0.0296 C.ar      1 <0>         0.0877
      8 C7         -3.6063    2.0244    0.6275 C.ar      1 <0>        -0.1778
      9 C8         -2.4116    1.3522    0.6115 C.ar      1 <0>        -0.0496
     10 N1         -4.9268    3.9566    0.0484 N.am      1 <0>        -0.3249
     11 C9         -4.9467    5.2998    0.1580 C.2       1 <0>         0.3145
     12 O2         -3.9068    5.9238    0.1566 O.2       1 <0>        -0.3597
     13 C10        -6.2612    6.0262    0.2822 C.3       1 <0>        -0.2095
     14 C11        -6.0043    7.5305    0.3910 C.3       1 <0>         0.0541
     15 H1         -5.4075    7.8610   -0.4591 H         1 <0>         0.1475
     16 C12        -7.3196    8.2674    0.4033 C.2       1 <0>         0.2949
     17 O3         -7.8040    8.6475   -0.6418 O.2       1 <0>        -0.3524
     18 N2         -7.9618    8.5083    1.5608 N.am      1 <0>        -0.3028
     19 C13        -7.3632    8.2090    2.7899 C.ar      1 <0>         0.0066
     20 C14        -8.0994    8.2561    3.9633 C.ar      1 <0>        -0.1373
     21 C15        -7.4986    7.9358    5.1669 C.ar      1 <0>        -0.1404
     22 C16        -6.1660    7.5684    5.2069 C.ar      1 <0>        -0.1159
     23 C17        -5.4220    7.5234    4.0413 C.ar      1 <0>        -0.1580
     24 C18        -6.0166    7.8463    2.8341 C.ar      1 <0>         0.0693
     25 N3         -5.2829    7.8173    1.6395 N.pl3     1 <0>        -0.3805
     26 H2          1.9669    1.2113   -0.6236 H         1 <0>         0.0981
     27 H3          0.9614    2.0058   -1.7518 H         1 <0>         0.0976
     28 H4          1.4243    2.7780   -0.2163 H         1 <0>         0.0988
     29 H5         -0.5438    3.6403   -1.0782 H         1 <0>         0.1379
     30 H6         -2.6891    4.8250   -1.0505 H         1 <0>         0.1671
     31 H7         -4.4677    1.5815    1.1051 H         1 <0>         0.1349
     32 H8         -2.3317    0.3802    1.0753 H         1 <0>         0.1551
     33 H9         -5.7591    3.4630   -0.0174 H         1 <0>         0.2366
     34 H10        -6.8723    5.8247   -0.5976 H         1 <0>         0.1196
     35 H11        -6.7840    5.6814    1.1744 H         1 <0>         0.1196
     36 H12        -8.8516    8.8942    1.5431 H         1 <0>         0.2451
     37 H13        -9.1405    8.5421    3.9376 H         1 <0>         0.1336
     38 H14        -8.0732    7.9725    6.0805 H         1 <0>         0.1335
     39 H15        -5.7048    7.3165    6.1504 H         1 <0>         0.1339
     40 H16        -4.3811    7.2370    4.0734 H         1 <0>         0.1415
     41 H17        -4.3269    7.9814    1.6370 H         1 <0>         0.2551
@<TRIPOS>BOND
     1    1    2 1
     2    1   26 1
     3    1   27 1
     4    1   28 1
     5    2    3 2
     6    2    4 1
     7    4    9 ar
     8    4    5 ar
     9    5    6 ar
    10    5   29 1
    11    6    7 ar
    12    6   30 1
    13    7    8 ar
    14    7   10 1
    15    8    9 ar
    16    8   31 1
    17    9   32 1
    18   10   11 am
    19   10   33 1
    20   11   12 2
    21   11   13 1
    22   13   14 1
    23   13   34 1
    24   13   35 1
    25   14   15 1
    26   14   25 1
    27   14   16 1
    28   16   17 2
    29   16   18 am
    30   18   19 1
    31   18   36 1
    32   19   24 ar
    33   19   20 ar
    34   20   21 ar
    35   20   37 1
    36   21   22 ar
    37   21   38 1
    38   22   23 ar
    39   22   39 1
    40   23   24 ar
    41   23   40 1
    42   24   25 1
    43   25   41 1
@<TRIPOS>MOLECULE
ZINC03889127
   41    43     0     0     0
SMALL
USER_CHARGES

@<TRIPOS>ATOM
      1 C1         -3.6858    4.1005   -2.5296 C.3       1 <0>        -0.1405
      2 C2         -4.0989    3.9106   -1.0928 C.2       1 <0>        -0.0471
      3 C3         -3.3169    4.2218    0.0415 C.2       1 <0>        -0.2965
      4 C4         -4.0714    3.8995    1.1592 C.2       1 <0>         0.1280
      5 N1         -5.2526    3.4113    0.7168 N.pl3     1 <0>        -0.0938
      6 N2         -5.2399    3.4270   -0.6824 N.2       1 <0>        -0.0619
      7 C5         -6.3091    2.9652    1.5224 C.ar      1 <0>         0.0529
      8 C6         -6.0440    2.3146    2.7199 C.ar      1 <0>        -0.1331
      9 C7         -7.0874    1.8817    3.5147 C.ar      1 <0>        -0.1149
     10 C8         -8.3948    2.0851    3.1131 C.ar      1 <0>        -0.1243
     11 C9         -8.6620    2.7274    1.9180 C.ar      1 <0>        -0.1180
     12 C10        -7.6230    3.1681    1.1218 C.ar      1 <0>        -0.1130
     13 O1         -3.6956    4.0467    2.4534 O.3       1 <0>        -0.2513
     14 C11        -1.9571    4.7884    0.0378 C.2       1 <0>        -0.0054
     15 N3         -0.9252    4.0001    0.0284 N.2       1 <0>         0.0144
     16 N4         -1.1051    2.6107    0.0218 N.pl3     1 <0>        -0.2226
     17 C12        -0.0222    1.7834    0.0118 C.2       1 <0>         0.1656
     18 N5          1.2633    2.1151    0.0014 N.2       1 <0>        -0.3587
     19 C13         2.2447    1.2560   -0.0126 C.2       1 <0>         0.3081
     20 O2          3.4105    1.6009   -0.0223 O.2       1 <0>        -0.2813
     21 C14         1.8287   -0.2098   -0.0165 C.3       1 <0>        -0.2554
     22 H1          2.1630   -0.7159   -0.9222 H         1 <0>         0.1527
     23 S1          0.0021   -0.0041    0.0020 S.3       1 <0>         0.0365
     24 C15         2.3220   -0.9338    1.2379 C.3       1 <0>        -0.1839
     25 C16        -1.7636    6.2829    0.0450 C.3       1 <0>        -0.1505
     26 H2         -3.1914    3.1976   -2.8879 H         1 <0>         0.0996
     27 H3         -4.5682    4.2976   -3.1384 H         1 <0>         0.1003
     28 H4         -2.9989    4.9438   -2.6017 H         1 <0>         0.0960
     29 H5         -5.0230    2.1514    3.0320 H         1 <0>         0.1540
     30 H6         -6.8818    1.3797    4.4486 H         1 <0>         0.1405
     31 H7         -9.2090    1.7420    3.7343 H         1 <0>         0.1365
     32 H8         -9.6842    2.8848    1.6069 H         1 <0>         0.1399
     33 H9         -7.8323    3.6702    0.1889 H         1 <0>         0.1536
     34 H10        -3.9262    4.9048    2.8347 H         1 <0>         0.2479
     35 H11        -2.0005    2.2376    0.0242 H         1 <0>         0.2510
     36 H12         1.8835   -1.9308    1.2780 H         1 <0>         0.0837
     37 H13         3.4085   -1.0157    1.2065 H         1 <0>         0.1034
     38 H14         2.0255   -0.3705    2.1227 H         1 <0>         0.0912
     39 H15        -1.7220    6.6488   -0.9809 H         1 <0>         0.1001
     40 H16        -2.5969    6.7547    0.5656 H         1 <0>         0.0876
     41 H17        -0.8317    6.5262    0.5555 H         1 <0>         0.1086
@<TRIPOS>BOND
     1    1    2 1
     2    1   26 1
     3    1   27 1
     4    1   28 1
     5    2    6 2
     6    2    3 1
     7    3    4 2
     8    3   14 1
     9    4    5 1
    10    4   13 1
    11    5    6 1
    12    5    7 1
    13    7   12 ar
    14    7    8 ar
    15    8    9 ar
    16    8   29 1
    17    9   10 ar
    18    9   30 1
    19   10   11 ar
    20   10   31 1
    21   11   12 ar
    22   11   32 1
    23   12   33 1
    24   13   34 1
    25   14   15 2
    26   14   25 1
    27   15   16 1
    28   16   17 1
    29   16   35 1
    30   17   23 1
    31   17   18 2
    32   18   19 1
    33   19   20 2
    34   19   21 1
    35   21   22 1
    36   21   23 1
    37   21   24 1
    38   24   36 1
    39   24   37 1
    40   24   38 1
    41   25   39 1
    42   25   40 1
    43   25   41 1
@<TRIPOS>MOLECULE
ZINC03889415
   42    44     0     0     0
SMALL
USER_CHARGES

@<TRIPOS>ATOM
      1 C1         -2.2812   -5.4825    2.1580 C.3       1 <0>        -0.2402
      2 C2         -2.3657   -4.2363    1.3149 C.2       1 <0>         0.3243
      3 O1         -2.3996   -3.1463    1.8457 O.2       1 <0>        -0.3278
      4 N1         -2.4035   -4.3330   -0.0288 N.am      1 <0>        -0.8301
      5 S1         -2.4963   -2.9635   -0.9552 S.o2      1 <0>         2.7490
      6 O2         -3.5429   -2.1733   -0.4082 O.2       1 <0>        -0.8844
      7 O3         -2.4921   -3.3892   -2.3110 O.2       1 <0>        -0.9164
      8 C3         -1.0024   -2.0633   -0.7054 C.ar      1 <0>        -0.7737
      9 C4          0.0879   -2.2975   -1.5248 C.ar      1 <0>        -0.0243
     10 C5          1.2605   -1.5966   -1.3351 C.ar      1 <0>        -0.1540
     11 C6          1.3459   -0.6483   -0.3127 C.ar      1 <0>         0.0533
     12 C7          0.2429   -0.4209    0.5140 C.ar      1 <0>        -0.1710
     13 C8         -0.9251   -1.1252    0.3089 C.ar      1 <0>         0.0080
     14 N2          2.5058    0.0502   -0.1185 N.2       1 <0>        -0.1587
     15 C9          2.4822    1.3554   -0.0721 C.2       1 <0>         0.0291
     16 C10         1.2405    2.0764   -0.3626 C.ar      1 <0>        -0.1578
     17 C11         0.5299    1.8643   -1.6241 C.ar      1 <0>        -0.0012
     18 C12         1.0076    0.9713   -2.5896 C.ar      1 <0>        -0.1294
     19 C13         0.3155    0.8019   -3.7524 C.ar      1 <0>        -0.1074
     20 C14        -0.8616    1.5057   -3.9923 C.ar      1 <0>        -0.1245
     21 C15        -1.3543    2.3821   -3.0734 C.ar      1 <0>        -0.1064
     22 C16        -0.6664    2.5819   -1.8648 C.ar      1 <0>        -0.0458
     23 C17        -1.1456    3.4786   -0.8923 C.ar      1 <0>        -0.0783
     24 C18        -0.4774    3.6608    0.2766 C.ar      1 <0>        -0.1568
     25 C19         0.7082    2.9825    0.5588 C.ar      1 <0>         0.1022
     26 O4          1.3452    3.1992    1.7363 O.3       1 <0>        -0.2895
     27 H1         -1.2348   -5.7353    2.3290 H         1 <0>         0.1107
     28 H2         -2.7739   -5.3082    3.1146 H         1 <0>         0.1212
     29 H3         -2.7739   -6.3055    1.6403 H         1 <0>         0.0892
     30 H4         -2.3763   -5.2048   -0.4533 H         1 <0>         0.2521
     31 H5          0.0203   -3.0306   -2.3149 H         1 <0>         0.1452
     32 H6          2.1106   -1.7801   -1.9755 H         1 <0>         0.1430
     33 H7          0.3032    0.3078    1.3088 H         1 <0>         0.1536
     34 H8         -1.7801   -0.9473    0.9444 H         1 <0>         0.1705
     35 H9          3.3782    1.9031    0.1803 H         1 <0>         0.1669
     36 H10         1.9195    0.4196   -2.4150 H         1 <0>         0.1435
     37 H11         0.6852    0.1123   -4.4968 H         1 <0>         0.1329
     38 H12        -1.3921    1.3542   -4.9207 H         1 <0>         0.1335
     39 H13        -2.2688    2.9209   -3.2730 H         1 <0>         0.1362
     40 H14        -2.0583    4.0262   -1.0756 H         1 <0>         0.1387
     41 H15        -0.8729    4.3528    1.0054 H         1 <0>         0.1432
     42 H16         2.0479    3.8616    1.6872 H         1 <0>         0.2316
@<TRIPOS>BOND
     1    1    2 1
     2    1   27 1
     3    1   28 1
     4    1   29 1
     5    2    3 2
     6    2    4 am
     7    4    5 1
     8    4   30 1
     9    5    6 2
    10    5    7 2
    11    5    8 1
    12    8   13 ar
    13    8    9 ar
    14    9   10 ar
    15    9   31 1
    16   10   11 ar
    17   10   32 1
    18   11   12 ar
    19   11   14 1
    20   12   13 ar
    21   12   33 1
    22   13   34 1
    23   14   15 2
    24   15   16 1
    25   15   35 1
    26   16   25 ar
    27   16   17 ar
    28   17   22 ar
    29   17   18 ar
    30   18   19 ar
    31   18   36 1
    32   19   20 ar
    33   19   37 1
    34   20   21 ar
    35   20   38 1
    36   21   22 ar
    37   21   39 1
    38   22   23 ar
    39   23   24 ar
    40   23   40 1
    41   24   25 ar
    42   24   41 1
    43   25   26 1
    44   26   42 1
@<TRIPOS>MOLECULE
ZINC03889477
   40    41     0     0     0
SMALL
USER_CHARGES

@<TRIPOS>ATOM
      1 C1          2.6881    4.0464    5.2409 C.3       1 <0>        -0.1961
      2 C2          2.0605    2.7991    4.6154 C.3       1 <0>        -0.1888
      3 C3          0.7630    3.1717    3.9456 C.2       1 <0>         0.3014
      4 O1          0.3781    4.3216    3.9664 O.2       1 <0>        -0.3504
      5 N1          0.0302    2.2270    3.3234 N.am      1 <0>        -0.3307
      6 C4         -1.2099    2.5546    2.7762 C.ar      1 <0>         0.0861
      7 C5         -1.4027    3.8020    2.1909 C.ar      1 <0>        -0.1370
      8 C6         -2.6240    4.1266    1.6447 C.ar      1 <0>        -0.0940
      9 C7         -3.6743    3.2054    1.6885 C.ar      1 <0>        -0.1478
     10 C8         -3.4788    1.9553    2.2824 C.ar      1 <0>        -0.0462
     11 C9         -2.2534    1.6354    2.8220 C.ar      1 <0>        -0.1733
     12 C10        -4.9861    3.5516    1.1087 C.2       1 <0>         0.3607
     13 O2         -5.9265    2.7904    1.2343 O.2       1 <0>        -0.3241
     14 N2         -5.1425    4.7112    0.4400 N.am      1 <0>        -0.3473
     15 N3         -6.3567    4.9928   -0.1996 N.2       1 <0>         0.0208
     16 C11        -6.4709    6.0552   -0.9369 C.2       1 <0>        -0.1116
     17 C12        -5.2786    6.8576   -1.2628 C.ar      1 <0>        -0.1171
     18 C13        -4.0151    6.2623   -1.2818 C.ar      1 <0>        -0.1393
     19 C14        -2.9040    7.0178   -1.5918 C.ar      1 <0>        -0.1342
     20 C15        -3.0339    8.3668   -1.8751 C.ar      1 <0>        -0.1043
     21 C16        -4.2779    8.9688   -1.8544 C.ar      1 <0>        -0.1522
     22 C17        -5.4052    8.2236   -1.5498 C.ar      1 <0>         0.0937
     23 O3         -6.6281    8.8141   -1.5297 O.3       1 <0>        -0.2891
     24 H1          2.0050    4.4653    5.9798 H         1 <0>         0.0929
     25 H2          3.6266    3.7769    5.7253 H         1 <0>         0.0750
     26 H3          2.8799    4.7856    4.4631 H         1 <0>         0.0899
     27 H4          1.8687    2.0599    5.3931 H         1 <0>         0.1029
     28 H5          2.7436    2.3802    3.8765 H         1 <0>         0.1000
     29 H6          0.3673    1.3202    3.2526 H         1 <0>         0.2349
     30 H7         -0.5920    4.5150    2.1613 H         1 <0>         0.1670
     31 H8         -2.7716    5.0934    1.1866 H         1 <0>         0.1283
     32 H9         -4.2881    1.2410    2.3176 H         1 <0>         0.1608
     33 H10        -2.1016    0.6696    3.2810 H         1 <0>         0.1367
     34 H11        -4.4143    5.3509    0.4015 H         1 <0>         0.2299
     35 H12        -7.4398    6.3510   -1.3115 H         1 <0>         0.1959
     36 H13        -3.9090    5.2112   -1.0574 H         1 <0>         0.1550
     37 H14        -1.9278    6.5562   -1.6100 H         1 <0>         0.1366
     38 H15        -2.1581    8.9522   -2.1132 H         1 <0>         0.1367
     39 H16        -4.3711   10.0217   -2.0758 H         1 <0>         0.1443
     40 H17        -6.8447    9.2415   -0.6898 H         1 <0>         0.2343
@<TRIPOS>BOND
     1    1    2 1
     2    1   24 1
     3    1   25 1
     4    1   26 1
     5    2    3 1
     6    2   27 1
     7    2   28 1
     8    3    4 2
     9    3    5 am
    10    5    6 1
    11    5   29 1
    12    6   11 ar
    13    6    7 ar
    14    7    8 ar
    15    7   30 1
    16    8    9 ar
    17    8   31 1
    18    9   10 ar
    19    9   12 1
    20   10   11 ar
    21   10   32 1
    22   11   33 1
    23   12   13 2
    24   12   14 am
    25   14   15 1
    26   14   34 1
    27   15   16 2
    28   16   17 1
    29   16   35 1
    30   17   22 ar
    31   17   18 ar
    32   18   19 ar
    33   18   36 1
    34   19   20 ar
    35   19   37 1
    36   20   21 ar
    37   20   38 1
    38   21   22 ar
    39   21   39 1
    40   22   23 1
    41   23   40 1
@<TRIPOS>MOLECULE
ZINC03889733
   45    49     0     0     0
SMALL
USER_CHARGES

@<TRIPOS>ATOM
      1 C1          1.2282    5.3435   -5.6966 C.ar      1 <0>        -0.1786
      2 C2          0.6765    4.0735   -5.6248 C.ar      1 <0>        -0.0627
      3 C3          1.0733    3.1880   -4.6427 C.ar      1 <0>        -0.1927
      4 C4          2.0333    3.5706   -3.7183 C.ar      1 <0>         0.1115
      5 C5          2.5935    4.8581   -3.7900 C.ar      1 <0>        -0.1851
      6 C6          2.1839    5.7421   -4.7859 C.ar      1 <0>        -0.0247
      7 C7          3.6102    5.2327   -2.7919 C.2       1 <0>         0.3489
      8 O1          4.1260    6.3341   -2.8097 O.2       1 <0>        -0.3327
      9 N1          3.9549    4.3214   -1.8563 N.am      1 <0>        -0.2486
     10 C8          3.3911    3.1037   -1.8290 C.2       1 <0>         0.4312
     11 O2          3.7374    2.3213   -0.9650 O.2       1 <0>        -0.3616
     12 N2          2.4598    2.7121   -2.7156 N.am      1 <0>        -0.3052
     13 H1          2.0707    1.7931   -2.6518 H         1 <0>         0.2728
     14 N3          4.9191    4.6538   -0.8958 N.2       1 <0>         0.0165
     15 C9          4.7064    5.6393   -0.0755 C.2       1 <0>        -0.0281
     16 C10         3.3982    6.3088   -0.0546 C.ar      1 <0>        -0.1063
     17 C11         2.2302    5.5712    0.1657 C.ar      1 <0>         0.0693
     18 C12         0.9989    6.2119    0.1849 C.ar      1 <0>        -0.1404
     19 C13         0.9089    7.5744   -0.0111 C.ar      1 <0>        -0.0859
     20 C14         2.0529    8.3316   -0.2320 C.ar      1 <0>         0.0114
     21 C15         3.3080    7.7009   -0.2505 C.ar      1 <0>        -0.0479
     22 C16         4.2710    8.7645   -0.5072 C.2       1 <0>        -0.1570
     23 C17         3.5674    9.9070   -0.6117 C.2       1 <0>         0.0034
     24 O3          2.2605    9.6486   -0.4486 O.3       1 <0>        -0.0753
     25 C18         4.1989   11.2555   -0.8727 C.3       1 <0>        -0.0800
     26 C19         5.6981   11.1581   -0.5700 C.3       1 <0>        -0.1587
     27 C20         6.2890    9.9441   -1.2925 C.3       1 <0>        -0.1605
     28 C21         5.7675    8.6599   -0.6352 C.3       1 <0>        -0.0909
     29 O4          2.3008    4.2286    0.3603 O.3       1 <0>        -0.2868
     30 H2          0.9072    6.0251   -6.4705 H         1 <0>         0.1384
     31 H3         -0.0714    3.7740   -6.3441 H         1 <0>         0.1353
     32 H4          0.6344    2.2026   -4.5918 H         1 <0>         0.1378
     33 H5          2.6113    6.7322   -4.8439 H         1 <0>         0.1585
     34 H6          5.4910    5.9662    0.5908 H         1 <0>         0.1865
     35 H7          0.1008    5.6368    0.3550 H         1 <0>         0.1497
     36 H8         -0.0576    8.0561    0.0075 H         1 <0>         0.1428
     37 H9          4.0537   11.5318   -1.9171 H         1 <0>         0.1049
     38 H10         3.7426   12.0049   -0.2260 H         1 <0>         0.0996
     39 H11         5.8451   11.0482    0.5045 H         1 <0>         0.0896
     40 H12         6.1974   12.0639   -0.9140 H         1 <0>         0.0889
     41 H13         7.3764    9.9729   -1.2228 H         1 <0>         0.0853
     42 H14         5.9904    9.9635   -2.3406 H         1 <0>         0.0940
     43 H15         6.2128    8.5474    0.3533 H         1 <0>         0.0834
     44 H16         6.0232    7.7987   -1.2524 H         1 <0>         0.1102
     45 H17         2.4789    3.9727    1.2756 H         1 <0>         0.2397
@<TRIPOS>BOND
     1    1    6 ar
     2    1    2 ar
     3    1   30 1
     4    2    3 ar
     5    2   31 1
     6    3    4 ar
     7    3   32 1
     8    4   12 1
     9    4    5 ar
    10    5    6 ar
    11    5    7 1
    12    6   33 1
    13    7    8 2
    14    7    9 am
    15    9   10 am
    16    9   14 1
    17   10   11 2
    18   10   12 am
    19   12   13 1
    20   14   15 2
    21   15   16 1
    22   15   34 1
    23   16   21 ar
    24   16   17 ar
    25   17   18 ar
    26   17   29 1
    27   18   19 ar
    28   18   35 1
    29   19   20 ar
    30   19   36 1
    31   20   24 1
    32   20   21 ar
    33   21   22 1
    34   22   28 1
    35   22   23 2
    36   23   24 1
    37   23   25 1
    38   25   26 1
    39   25   37 1
    40   25   38 1
    41   26   27 1
    42   26   39 1
    43   26   40 1
    44   27   28 1
    45   27   41 1
    46   27   42 1
    47   28   43 1
    48   28   44 1
    49   29   45 1
@<TRIPOS>MOLECULE
ZINC03889897
   44    47     0     0     0
SMALL
USER_CHARGES

@<TRIPOS>ATOM
      1 C1          5.3626    8.1817    1.3427 C.3       1 <0>        -0.0631
      2 O1          5.2295    6.7589    1.3428 O.3       1 <0>        -0.2065
      3 C2          3.9827    6.2562    1.1488 C.ar      1 <0>         0.1390
      4 C3          2.9084    7.1247    0.9619 C.ar      1 <0>        -0.2418
      5 C4          1.6503    6.6357    0.7654 C.ar      1 <0>        -0.0274
      6 C5          1.4328    5.2537    0.7508 C.ar      1 <0>        -0.1550
      7 C6          2.5132    4.3699    0.9390 C.ar      1 <0>         0.0907
      8 C7          3.7894    4.8875    1.1380 C.ar      1 <0>        -0.1992
      9 N1          2.0266    3.0831    0.8794 N.pl3     1 <0>        -0.1571
     10 H1          2.5618    2.2801    0.9780 H         1 <0>         0.2641
     11 C8          0.6579    3.1058    0.6574 C.2       1 <0>        -0.1528
     12 C9          0.2436    4.4231    0.5706 C.2       1 <0>         0.0422
     13 N2         -1.0928    4.7030    0.3496 N.am      1 <0>        -0.2792
     14 H2         -1.3999    5.6525    0.2854 H         1 <0>         0.2729
     15 C10        -1.9811    3.6990    0.2207 C.2       1 <0>         0.4010
     16 O2         -3.1528    3.9613    0.0271 O.2       1 <0>        -0.3783
     17 N3         -1.5977    2.4127    0.2958 N.am      1 <0>        -0.2548
     18 C11        -0.3100    2.0815    0.5154 C.2       1 <0>         0.3769
     19 O3          0.0197    0.9107    0.5863 O.2       1 <0>        -0.3247
     20 N4         -2.5540    1.3994    0.1492 N.2       1 <0>         0.0058
     21 C12        -3.2375    1.3061   -0.9506 C.2       1 <0>        -0.0120
     22 C13        -2.8943    2.1544   -2.1055 C.ar      1 <0>        -0.0943
     23 C14        -1.6166    2.7117   -2.2128 C.ar      1 <0>        -0.1515
     24 C15        -1.2995    3.5047   -3.2947 C.ar      1 <0>        -0.0984
     25 C16        -2.2409    3.7533   -4.2792 C.ar      1 <0>        -0.1946
     26 C17        -3.5114    3.2081   -4.1861 C.ar      1 <0>         0.0746
     27 C18        -3.8442    2.4016   -3.1038 C.ar      1 <0>         0.0817
     28 O4         -5.0873    1.8605   -3.0124 O.3       1 <0>        -0.2789
     29 O5         -4.4309    3.4570   -5.1567 O.3       1 <0>        -0.1971
     30 C19        -4.0185    4.2888   -6.2431 C.3       1 <0>        -0.0654
     31 H3          6.4063    8.4491    1.5074 H         1 <0>         0.1124
     32 H4          5.0335    8.5773    0.3818 H         1 <0>         0.0699
     33 H5          4.7493    8.6041    2.1387 H         1 <0>         0.0709
     34 H6          3.0734    8.1919    0.9723 H         1 <0>         0.1406
     35 H7          0.8229    7.3146    0.6209 H         1 <0>         0.1312
     36 H8          4.6271    4.2214    1.2832 H         1 <0>         0.1507
     37 H9         -4.0577    0.6068   -1.0190 H         1 <0>         0.1996
     38 H10        -0.8781    2.5206   -1.4482 H         1 <0>         0.1476
     39 H11        -0.3117    3.9340   -3.3751 H         1 <0>         0.1367
     40 H12        -1.9837    4.3755   -5.1236 H         1 <0>         0.1398
     41 H13        -5.7047    2.3809   -2.4804 H         1 <0>         0.2357
     42 H14        -4.8446    4.4066   -6.9444 H         1 <0>         0.1122
     43 H15        -3.7241    5.2662   -5.8609 H         1 <0>         0.0665
     44 H16        -3.1723    3.8279   -6.7526 H         1 <0>         0.0694
@<TRIPOS>BOND
     1    1    2 1
     2    1   31 1
     3    1   32 1
     4    1   33 1
     5    2    3 1
     6    3    8 ar
     7    3    4 ar
     8    4    5 ar
     9    4   34 1
    10    5    6 ar
    11    5   35 1
    12    6   12 1
    13    6    7 ar
    14    7    8 ar
    15    7    9 1
    16    8   36 1
    17    9   10 1
    18    9   11 1
    19   11   18 1
    20   11   12 2
    21   12   13 1
    22   13   14 1
    23   13   15 am
    24   15   16 2
    25   15   17 am
    26   17   18 am
    27   17   20 1
    28   18   19 2
    29   20   21 2
    30   21   22 1
    31   21   37 1
    32   22   27 ar
    33   22   23 ar
    34   23   24 ar
    35   23   38 1
    36   24   25 ar
    37   24   39 1
    38   25   26 ar
    39   25   40 1
    40   26   27 ar
    41   26   29 1
    42   27   28 1
    43   28   41 1
    44   29   30 1
    45   30   42 1
    46   30   43 1
    47   30   44 1
@<TRIPOS>MOLECULE
ZINC03889962
   38    40     0     0     0
SMALL
USER_CHARGES

@<TRIPOS>ATOM
      1 C1          1.5011    0.4587    0.6828 C.3       1 <0>        -0.0654
      2 O1          0.7042   -0.6391    0.2336 O.3       1 <0>        -0.1996
      3 C2          0.7390   -0.9241   -1.0957 C.ar      1 <0>         0.0601
      4 C3          1.5208   -0.1650   -1.9441 C.ar      1 <0>        -0.1821
      5 C4          1.5540   -0.4615   -3.3121 C.ar      1 <0>        -0.0610
      6 C5          0.7941   -1.5260   -3.8118 C.ar      1 <0>        -0.0780
      7 C6          0.0173   -2.2775   -2.9576 C.ar      1 <0>        -0.1279
      8 C7         -0.0103   -1.9860   -1.6004 C.ar      1 <0>         0.0665
      9 O2         -0.7738   -2.7347   -0.7623 O.3       1 <0>        -0.2756
     10 C8          2.3836    0.3413   -4.2199 C.2       1 <0>         0.0262
     11 C9          3.0732   -0.2622   -5.2213 C.2       1 <0>        -0.3177
     12 C10         3.2697   -1.6998   -5.4884 C.2       1 <0>         0.3368
     13 O3          2.7863   -2.5528   -4.7671 O.2       1 <0>        -0.3125
     14 N1          3.9912   -2.0196   -6.5493 N.am      1 <0>        -0.3049
     15 C11         4.5367   -1.0385   -7.3494 C.2       1 <0>         0.0230
     16 N2          5.2766   -1.1798   -8.4255 N.2       1 <0>        -0.1668
     17 C12         5.7316   -0.0742   -9.0938 C.ar      1 <0>        -0.0023
     18 C13         4.8668    0.9902   -9.3569 C.ar      1 <0>        -0.1481
     19 C14         5.3306    2.1035  -10.0260 C.ar      1 <0>        -0.1382
     20 C15         6.6519    2.1625  -10.4470 C.ar      1 <0>         0.0674
     21 C16         7.5137    1.1047  -10.1923 C.ar      1 <0>        -0.1452
     22 C17         7.0601   -0.0104   -9.5192 C.ar      1 <0>        -0.0933
     23 O4          7.1036    3.2601  -11.1105 O.3       1 <0>        -0.2913
     24 S1          3.9935    0.4712   -6.5661 S.3       1 <0>         0.2018
     25 H1          2.5487    0.2657    0.4520 H         1 <0>         0.0702
     26 H2          1.1801    1.3706    0.1793 H         1 <0>         0.0635
     27 H3          1.3823    0.5773    1.7598 H         1 <0>         0.1110
     28 H4          2.1053    0.6548   -1.5534 H         1 <0>         0.1394
     29 H5          0.8167   -1.7577   -4.8664 H         1 <0>         0.1451
     30 H6         -0.5682   -3.0987   -3.3440 H         1 <0>         0.1492
     31 H7         -1.6769   -2.4063   -0.6541 H         1 <0>         0.2262
     32 H8          2.4450    1.4118   -4.0907 H         1 <0>         0.1512
     33 H9          4.1420   -2.9535   -6.7640 H         1 <0>         0.2600
     34 H10         3.8375    0.9435   -9.0334 H         1 <0>         0.1478
     35 H11         4.6636    2.9290  -10.2264 H         1 <0>         0.1432
     36 H12         8.5409    1.1547  -10.5220 H         1 <0>         0.1449
     37 H13         7.7312   -0.8332   -9.3218 H         1 <0>         0.1479
     38 H14         7.0062    3.2067  -12.0711 H         1 <0>         0.2283
@<TRIPOS>BOND
     1    1    2 1
     2    1   25 1
     3    1   26 1
     4    1   27 1
     5    2    3 1
     6    3    8 ar
     7    3    4 ar
     8    4    5 ar
     9    4   28 1
    10    5    6 ar
    11    5   10 1
    12    6    7 ar
    13    6   29 1
    14    7    8 ar
    15    7   30 1
    16    8    9 1
    17    9   31 1
    18   10   11 2
    19   10   32 1
    20   11   24 1
    21   11   12 1
    22   12   13 2
    23   12   14 am
    24   14   15 1
    25   14   33 1
    26   15   16 2
    27   15   24 1
    28   16   17 1
    29   17   22 ar
    30   17   18 ar
    31   18   19 ar
    32   18   34 1
    33   19   20 ar
    34   19   35 1
    35   20   21 ar
    36   20   23 1
    37   21   22 ar
    38   21   36 1
    39   22   37 1
    40   23   38 1
@<TRIPOS>MOLECULE
ZINC03889963
   38    40     0     0     0
SMALL
USER_CHARGES

@<TRIPOS>ATOM
      1 C1          7.0944    7.5180   -5.9399 C.3       1 <0>        -0.0670
      2 O1          5.6757    7.5275   -6.1109 O.3       1 <0>        -0.1972
      3 C2          4.9807    6.4956   -5.5617 C.ar      1 <0>         0.0698
      4 C3          5.6487    5.5036   -4.8711 C.ar      1 <0>        -0.1830
      5 C4          4.9303    4.4398   -4.3119 C.ar      1 <0>        -0.0525
      6 C5          3.5374    4.3942   -4.4464 C.ar      1 <0>        -0.1272
      7 C6          2.8793    5.3915   -5.1321 C.ar      1 <0>        -0.1206
      8 C7          3.5935    6.4428   -5.6910 C.ar      1 <0>         0.0641
      9 O2          2.9384    7.4234   -6.3657 O.3       1 <0>        -0.2746
     10 C8          5.6349    3.3783   -3.5816 C.2       1 <0>         0.0175
     11 C9          4.9300    2.4491   -2.8872 C.2       1 <0>        -0.3113
     12 C10         5.4031    1.2209   -2.2207 C.2       1 <0>         0.3435
     13 O3          6.5776    0.9016   -2.2346 O.2       1 <0>        -0.3214
     14 N1          4.4936    0.4829   -1.6070 N.am      1 <0>        -0.3019
     15 C11         3.1683    0.8623   -1.6019 C.2       1 <0>        -0.0016
     16 N2          2.1463    0.2525   -1.0460 N.2       1 <0>        -0.1650
     17 C12         0.8901    0.7886   -1.1491 C.ar      1 <0>        -0.0007
     18 C13        -0.1962   -0.0289   -1.4676 C.ar      1 <0>        -0.0938
     19 C14        -1.4585    0.5162   -1.5755 C.ar      1 <0>        -0.1450
     20 C15        -1.6518    1.8731   -1.3567 C.ar      1 <0>         0.0664
     21 C16        -0.5750    2.6896   -1.0399 C.ar      1 <0>        -0.1393
     22 C17         0.6918    2.1542   -0.9355 C.ar      1 <0>        -0.1503
     23 O4         -2.8990    2.4052   -1.4581 O.3       1 <0>        -0.2902
     24 S1          3.1781    2.3805   -2.5415 S.3       1 <0>         0.2147
     25 H1          7.5083    6.6147   -6.3880 H         1 <0>         0.0711
     26 H2          7.5246    8.3942   -6.4249 H         1 <0>         0.1142
     27 H3          7.3322    7.5379   -4.8764 H         1 <0>         0.0671
     28 H4          6.7228    5.5461   -4.7662 H         1 <0>         0.1450
     29 H5          2.9791    3.5779   -4.0124 H         1 <0>         0.1536
     30 H6          1.8048    5.3556   -5.2349 H         1 <0>         0.1508
     31 H7          2.6617    8.1654   -5.8107 H         1 <0>         0.2299
     32 H8          6.7140    3.3369   -3.5971 H         1 <0>         0.1655
     33 H9          4.7614   -0.3330   -1.1560 H         1 <0>         0.2592
     34 H10        -0.0475   -1.0857   -1.6336 H         1 <0>         0.1481
     35 H11        -2.2985   -0.1145   -1.8266 H         1 <0>         0.1449
     36 H12        -0.7292    3.7457   -0.8752 H         1 <0>         0.1426
     37 H13         1.5292    2.7903   -0.6892 H         1 <0>         0.1479
     38 H14        -3.1241    2.7135   -2.3466 H         1 <0>         0.2268
@<TRIPOS>BOND
     1    1    2 1
     2    1   25 1
     3    1   26 1
     4    1   27 1
     5    2    3 1
     6    3    8 ar
     7    3    4 ar
     8    4    5 ar
     9    4   28 1
    10    5    6 ar
    11    5   10 1
    12    6    7 ar
    13    6   29 1
    14    7    8 ar
    15    7   30 1
    16    8    9 1
    17    9   31 1
    18   10   11 2
    19   10   32 1
    20   11   24 1
    21   11   12 1
    22   12   13 2
    23   12   14 am
    24   14   15 1
    25   14   33 1
    26   15   16 2
    27   15   24 1
    28   16   17 1
    29   17   22 ar
    30   17   18 ar
    31   18   19 ar
    32   18   34 1
    33   19   20 ar
    34   19   35 1
    35   20   21 ar
    36   20   23 1
    37   21   22 ar
    38   21   36 1
    39   22   37 1
    40   23   38 1
@<TRIPOS>MOLECULE
ZINC03889965
   38    40     0     0     0
SMALL
USER_CHARGES

@<TRIPOS>ATOM
      1 C1          2.5591    5.4436    1.9308 C.3       1 <0>        -0.0684
      2 O1          1.6223    6.4071    1.4450 O.3       1 <0>        -0.1987
      3 C2          0.4945    5.9286    0.8547 C.ar      1 <0>         0.0669
      4 C3          0.2945    4.5661    0.7512 C.ar      1 <0>        -0.1372
      5 C4         -0.8659    4.0772    0.1388 C.ar      1 <0>        -0.0614
      6 C5         -1.8213    4.9730   -0.3564 C.ar      1 <0>        -0.1221
      7 C6         -1.6149    6.3305   -0.2446 C.ar      1 <0>        -0.1337
      8 C7         -0.4616    6.8138    0.3585 C.ar      1 <0>         0.0659
      9 O2         -0.2642    8.1538    0.4661 O.3       1 <0>        -0.2756
     10 C8         -1.0830    2.6295    0.0217 C.2       1 <0>         0.0323
     11 C9         -0.0432    1.8091   -0.2752 C.2       1 <0>        -0.3361
     12 C10         1.3319    2.1518   -0.6856 C.2       1 <0>         0.3303
     13 O3          1.6915    3.3089   -0.8014 O.2       1 <0>        -0.3207
     14 N1          2.1559    1.1451   -0.9221 N.am      1 <0>        -0.3499
     15 C11         1.7292   -0.1586   -0.7852 C.2       1 <0>        -0.0054
     16 N2          2.4101   -1.2653   -0.9778 N.2       1 <0>        -0.1558
     17 C12         3.7219   -1.2033   -1.3669 C.ar      1 <0>        -0.0103
     18 C13         4.1101   -0.3292   -2.3844 C.ar      1 <0>        -0.1701
     19 C14         5.4329   -0.2668   -2.7696 C.ar      1 <0>        -0.1371
     20 C15         6.3760   -1.0787   -2.1548 C.ar      1 <0>         0.0649
     21 C16         5.9939   -1.9528   -1.1467 C.ar      1 <0>        -0.1417
     22 C17         4.6743   -2.0182   -0.7512 C.ar      1 <0>        -0.0962
     23 O4          7.6783   -1.0172   -2.5411 O.3       1 <0>        -0.2909
     24 S1          0.0260    0.0235   -0.2816 S.3       1 <0>         0.3209
     25 H1          3.4106    5.9575    2.3770 H         1 <0>         0.1087
     26 H2          2.0789    4.8165    2.6820 H         1 <0>         0.0611
     27 H3          2.9026    4.8218    1.1041 H         1 <0>         0.0835
     28 H4          1.0327    3.8795    1.1386 H         1 <0>         0.1504
     29 H5         -2.7197    4.5999   -0.8255 H         1 <0>         0.1343
     30 H6         -2.3525    7.0206   -0.6269 H         1 <0>         0.1465
     31 H7         -0.6156    8.5390    1.2805 H         1 <0>         0.2263
     32 H8         -2.0700    2.2177    0.1719 H         1 <0>         0.1518
     33 H9          3.0692    1.3256   -1.1943 H         1 <0>         0.2581
     34 H10         3.3762    0.2999   -2.8661 H         1 <0>         0.1397
     35 H11         5.7347    0.4119   -3.5536 H         1 <0>         0.1444
     36 H12         6.7311   -2.5829   -0.6713 H         1 <0>         0.1456
     37 H13         4.3779   -2.6984    0.0336 H         1 <0>         0.1500
     38 H14         7.9062   -1.6286   -3.2548 H         1 <0>         0.2295
@<TRIPOS>BOND
     1    1    2 1
     2    1   25 1
     3    1   26 1
     4    1   27 1
     5    2    3 1
     6    3    8 ar
     7    3    4 ar
     8    4    5 ar
     9    4   28 1
    10    5    6 ar
    11    5   10 1
    12    6    7 ar
    13    6   29 1
    14    7    8 ar
    15    7   30 1
    16    8    9 1
    17    9   31 1
    18   10   11 2
    19   10   32 1
    20   11   24 1
    21   11   12 1
    22   12   13 2
    23   12   14 am
    24   14   15 1
    25   14   33 1
    26   15   16 2
    27   15   24 1
    28   16   17 1
    29   17   22 ar
    30   17   18 ar
    31   18   19 ar
    32   18   34 1
    33   19   20 ar
    34   19   35 1
    35   20   21 ar
    36   20   23 1
    37   21   22 ar
    38   21   36 1
    39   22   37 1
    40   23   38 1
@<TRIPOS>MOLECULE
ZINC03889966
   38    40     0     0     0
SMALL
USER_CHARGES

@<TRIPOS>ATOM
      1 C1          4.3531    8.2181    1.3936 C.3       1 <0>        -0.0670
      2 O1          3.1466    8.6961    0.7954 O.3       1 <0>        -0.1970
      3 C2          2.2863    7.7619    0.3091 C.ar      1 <0>         0.0706
      4 C3          2.5975    6.4199    0.4064 C.ar      1 <0>        -0.1834
      5 C4          1.7092    5.4610   -0.0955 C.ar      1 <0>        -0.0536
      6 C5          0.5130    5.8688   -0.6983 C.ar      1 <0>        -0.1326
      7 C6          0.2089    7.2096   -0.7859 C.ar      1 <0>        -0.1182
      8 C7          1.0907    8.1594   -0.2879 C.ar      1 <0>         0.0638
      9 O2          0.7877    9.4804   -0.3829 O.3       1 <0>        -0.2744
     10 C8          2.0338    4.0323    0.0047 C.2       1 <0>         0.0191
     11 C9          1.0585    3.1019   -0.1551 C.2       1 <0>        -0.3254
     12 C10         1.1716    1.6337   -0.2478 C.2       1 <0>         0.3355
     13 O3          2.2502    1.0734   -0.1832 O.2       1 <0>        -0.3243
     14 N1          0.0480    0.9542   -0.4038 N.am      1 <0>        -0.3477
     15 C11        -1.1633    1.6080   -0.4799 C.2       1 <0>        -0.0218
     16 N2         -2.3611    1.0925   -0.6376 N.2       1 <0>        -0.1565
     17 C12        -2.5135   -0.2642   -0.7494 C.ar      1 <0>        -0.0092
     18 C13        -1.6647   -0.9981   -1.5805 C.ar      1 <0>        -0.1709
     19 C14        -1.8180   -2.3648   -1.6851 C.ar      1 <0>        -0.1370
     20 C15        -2.8219   -3.0090   -0.9754 C.ar      1 <0>         0.0637
     21 C16        -3.6716   -2.2828   -0.1525 C.ar      1 <0>        -0.1411
     22 C17        -3.5218   -0.9166   -0.0369 C.ar      1 <0>        -0.0964
     23 O4         -2.9732   -4.3558   -1.0863 O.3       1 <0>        -0.2909
     24 S1         -0.7077    3.3258   -0.3091 S.3       1 <0>         0.3323
     25 H1          4.9475    9.0640    1.7389 H         1 <0>         0.1142
     26 H2          4.1093    7.5757    2.2398 H         1 <0>         0.0712
     27 H3          4.9228    7.6498    0.6584 H         1 <0>         0.0669
     28 H4          3.5234    6.1109    0.8686 H         1 <0>         0.1450
     29 H5         -0.1726    5.1325   -1.0909 H         1 <0>         0.1528
     30 H6         -0.7161    7.5230   -1.2470 H         1 <0>         0.1524
     31 H7          1.1038    9.8990   -1.1953 H         1 <0>         0.2301
     32 H8          3.0486    3.7219    0.2055 H         1 <0>         0.1661
     33 H9          0.0767   -0.0131   -0.4692 H         1 <0>         0.2579
     34 H10        -0.8866   -0.4970   -2.1371 H         1 <0>         0.1386
     35 H11        -1.1592   -2.9339   -2.3242 H         1 <0>         0.1433
     36 H12        -4.4513   -2.7882    0.3978 H         1 <0>         0.1453
     37 H13        -4.1832   -0.3524    0.6039 H         1 <0>         0.1500
     38 H14        -3.5719   -4.6273   -1.7956 H         1 <0>         0.2286
@<TRIPOS>BOND
     1    1    2 1
     2    1   25 1
     3    1   26 1
     4    1   27 1
     5    2    3 1
     6    3    8 ar
     7    3    4 ar
     8    4    5 ar
     9    4   28 1
    10    5    6 ar
    11    5   10 1
    12    6    7 ar
    13    6   29 1
    14    7    8 ar
    15    7   30 1
    16    8    9 1
    17    9   31 1
    18   10   11 2
    19   10   32 1
    20   11   24 1
    21   11   12 1
    22   12   13 2
    23   12   14 am
    24   14   15 1
    25   14   33 1
    26   15   16 2
    27   15   24 1
    28   16   17 1
    29   17   22 ar
    30   17   18 ar
    31   18   19 ar
    32   18   34 1
    33   19   20 ar
    34   19   35 1
    35   20   21 ar
    36   20   23 1
    37   21   22 ar
    38   21   36 1
    39   22   37 1
    40   23   38 1
@<TRIPOS>MOLECULE
ZINC03890033
   40    43     0     0     0
SMALL
USER_CHARGES

@<TRIPOS>ATOM
      1 C1         -6.6386   -0.2261    0.5064 C.3       1 <0>        -0.0627
      2 O1         -5.9712    1.0304    0.3727 O.3       1 <0>        -0.2168
      3 C2         -6.7489    2.1210    0.1517 C.ar      1 <0>         0.1623
      4 C3         -8.1219    1.9894    0.0645 C.ar      1 <0>        -0.2665
      5 C4         -8.9182    3.1018   -0.1621 C.ar      1 <0>        -0.0415
      6 C5         -8.3576    4.3525   -0.3025 C.ar      1 <0>        -0.1972
      7 C6         -6.9772    4.5135   -0.2193 C.ar      1 <0>         0.0888
      8 C7         -6.1636    3.3878    0.0102 C.ar      1 <0>        -0.1455
      9 C8         -4.7855    3.8708    0.0464 C.2       1 <0>         0.0612
     10 C9         -4.8349    5.2385   -0.1592 C.2       1 <0>        -0.1641
     11 N1         -6.1593    5.6169   -0.3183 N.pl3     1 <0>        -0.1569
     12 H1         -6.4644    6.5241   -0.4758 H         1 <0>         0.2643
     13 C10        -3.6196    5.9658   -0.1674 C.2       1 <0>         0.3759
     14 O2         -3.6264    7.1716   -0.3411 O.2       1 <0>        -0.3284
     15 N2         -2.4552    5.3120    0.0143 N.am      1 <0>        -0.2565
     16 C11        -2.4284    3.9828    0.2129 C.2       1 <0>         0.3983
     17 O3         -1.3597    3.4264    0.3779 O.2       1 <0>        -0.3655
     18 N3         -3.5611    3.2547    0.2323 N.am      1 <0>        -0.2755
     19 H2         -3.5170    2.2669    0.3814 H         1 <0>         0.2851
     20 N4         -1.2526    6.0308    0.0016 N.2       1 <0>         0.0047
     21 C12        -0.3535    5.7753   -0.8985 C.2       1 <0>        -0.0146
     22 C13        -0.7007    4.9590   -2.0768 C.ar      1 <0>        -0.0884
     23 C14        -2.0313    4.6086   -2.3198 C.ar      1 <0>        -0.1414
     24 C15        -2.3527    3.8506   -3.4266 C.ar      1 <0>        -0.1135
     25 C16        -1.3605    3.4257   -4.2912 C.ar      1 <0>        -0.1343
     26 C17        -0.0354    3.7684   -4.0581 C.ar      1 <0>         0.0686
     27 C18         0.2986    4.5340   -2.9539 C.ar      1 <0>        -0.1184
     28 O4          0.9343    3.3524   -4.9146 O.3       1 <0>        -0.2893
     29 H3         -7.3289   -0.1830    1.3490 H         1 <0>         0.0741
     30 H4         -7.1931   -0.4420   -0.4068 H         1 <0>         0.0730
     31 H5         -5.9031   -1.0117    0.6792 H         1 <0>         0.1125
     32 H6         -8.5766    1.0158    0.1729 H         1 <0>         0.1408
     33 H7         -9.9900    2.9866   -0.2283 H         1 <0>         0.1374
     34 H8         -8.9904    5.2099   -0.4782 H         1 <0>         0.1368
     35 H9          0.6491    6.1603   -0.7847 H         1 <0>         0.1886
     36 H10        -2.8082    4.9353   -1.6444 H         1 <0>         0.1531
     37 H11        -3.3821    3.5846   -3.6163 H         1 <0>         0.1382
     38 H12        -1.6179    2.8287   -5.1536 H         1 <0>         0.1415
     39 H13         1.3290    4.8018   -2.7719 H         1 <0>         0.1439
     40 H14         1.1088    3.9676   -5.6400 H         1 <0>         0.2281
@<TRIPOS>BOND
     1    1    2 1
     2    1   29 1
     3    1   30 1
     4    1   31 1
     5    2    3 1
     6    3    8 ar
     7    3    4 ar
     8    4    5 ar
     9    4   32 1
    10    5    6 ar
    11    5   33 1
    12    6    7 ar
    13    6   34 1
    14    7   11 1
    15    7    8 ar
    16    8    9 1
    17    9   18 1
    18    9   10 2
    19   10   11 1
    20   10   13 1
    21   11   12 1
    22   13   14 2
    23   13   15 am
    24   15   16 am
    25   15   20 1
    26   16   17 2
    27   16   18 am
    28   18   19 1
    29   20   21 2
    30   21   22 1
    31   21   35 1
    32   22   27 ar
    33   22   23 ar
    34   23   24 ar
    35   23   36 1
    36   24   25 ar
    37   24   37 1
    38   25   26 ar
    39   25   38 1
    40   26   27 ar
    41   26   28 1
    42   27   39 1
    43   28   40 1
@<TRIPOS>MOLECULE
ZINC03890758
   43    45     0     0     0
SMALL
USER_CHARGES

@<TRIPOS>ATOM
      1 C1          4.3133   -1.5181   -5.0232 C.3       1 <0>        -0.2446
      2 C2          2.8158   -1.5447   -5.3356 C.3       1 <0>         0.0134
      3 H1          2.4354   -0.5242   -5.3785 H         1 <0>         0.0998
      4 C3          2.5917   -2.2205   -6.6638 C.2       1 <0>         0.3129
      5 O1          1.9104   -3.2218   -6.7275 O.2       1 <0>        -0.2765
      6 N1          3.1484   -1.7121   -7.7810 N.am      1 <0>        -0.3293
      7 N2          2.9401   -2.3404   -9.0158 N.2       1 <0>         0.0641
      8 C4          3.3875   -1.7866  -10.1168 C.2       1 <0>         0.0181
      9 C5          3.9814   -0.4392  -10.2326 C.ar      1 <0>        -0.1072
     10 C6          4.2467    0.5904   -9.3421 C.ar      1 <0>        -0.1083
     11 C7          4.8302    1.7570   -9.7987 C.ar      1 <0>        -0.1047
     12 C8          5.1519    1.9057  -11.1387 C.ar      1 <0>        -0.1262
     13 C9          4.8951    0.8915  -12.0396 C.ar      1 <0>        -0.0776
     14 C10         4.3081   -0.2902  -11.5980 C.ar      1 <0>        -0.1213
     15 C11         3.9021   -1.5438  -12.2497 C.2       1 <0>         0.1891
     16 N3          3.3920   -2.3539  -11.3535 N.2       1 <0>        -0.2120
     17 N4          4.0416   -1.8264  -13.5939 N.pl3     1 <0>        -0.3667
     18 O2          2.1284   -2.2667   -4.3118 O.3       1 <0>        -0.1742
     19 C12         1.8238   -1.5861   -3.1747 C.ar      1 <0>         0.0589
     20 C13         2.2798   -0.2880   -3.0002 C.ar      1 <0>        -0.1928
     21 C14         1.9696    0.4037   -1.8455 C.ar      1 <0>        -0.1215
     22 C15         1.2017   -0.1998   -0.8607 C.ar      1 <0>         0.0618
     23 C16         0.7501   -1.4998   -1.0329 C.ar      1 <0>        -0.1833
     24 C17         1.0566   -2.1900   -2.1895 C.ar      1 <0>        -0.1106
     25 O3          0.8964    0.4812    0.2760 O.3       1 <0>        -0.2141
     26 C18         0.1018   -0.2018    1.2478 C.3       1 <0>        -0.0625
     27 H2          4.8377   -0.9673   -5.8041 H         1 <0>         0.0754
     28 H3          4.4754   -1.0293   -4.0625 H         1 <0>         0.0965
     29 H4          4.6937   -2.5386   -4.9804 H         1 <0>         0.1090
     30 H5          3.6933   -0.9113   -7.7302 H         1 <0>         0.2124
     31 H6          3.9989    0.4808   -8.2966 H         1 <0>         0.1250
     32 H7          5.0369    2.5594   -9.1060 H         1 <0>         0.1372
     33 H8          5.6078    2.8229  -11.4811 H         1 <0>         0.1385
     34 H9          5.1486    1.0148  -13.0822 H         1 <0>         0.1314
     35 H10         4.4352   -1.1695  -14.1894 H         1 <0>         0.2329
     36 H11         3.7461   -2.6818  -13.9429 H         1 <0>         0.2440
     37 H12         2.8772    0.1822   -3.7674 H         1 <0>         0.1348
     38 H13         2.3248    1.4146   -1.7096 H         1 <0>         0.1431
     39 H14         0.1559   -1.9713   -0.2641 H         1 <0>         0.1409
     40 H15         0.7012   -3.2007   -2.3255 H         1 <0>         0.1510
     41 H16        -0.8555   -0.4776    0.8054 H         1 <0>         0.0680
     42 H17         0.6228   -1.1011    1.5761 H         1 <0>         0.0674
     43 H18        -0.0681    0.4524    2.1029 H         1 <0>         0.1076
@<TRIPOS>BOND
     1    1    2 1
     2    1   27 1
     3    1   28 1
     4    1   29 1
     5    2    3 1
     6    2    4 1
     7    2   18 1
     8    4    5 2
     9    4    6 am
    10    6    7 1
    11    6   30 1
    12    7    8 2
    13    8   16 1
    14    8    9 1
    15    9   14 ar
    16    9   10 ar
    17   10   11 ar
    18   10   31 1
    19   11   12 ar
    20   11   32 1
    21   12   13 ar
    22   12   33 1
    23   13   14 ar
    24   13   34 1
    25   14   15 1
    26   15   16 2
    27   15   17 1
    28   17   35 1
    29   17   36 1
    30   18   19 1
    31   19   24 ar
    32   19   20 ar
    33   20   21 ar
    34   20   37 1
    35   21   22 ar
    36   21   38 1
    37   22   23 ar
    38   22   25 1
    39   23   24 ar
    40   23   39 1
    41   24   40 1
    42   25   26 1
    43   26   41 1
    44   26   42 1
    45   26   43 1
@<TRIPOS>MOLECULE
ZINC03890759
   43    45     0     0     0
SMALL
USER_CHARGES

@<TRIPOS>ATOM
      1 C1         -6.4033   -1.2404    1.6789 C.3       1 <0>        -0.2448
      2 C2         -6.0583   -1.7793    0.2891 C.3       1 <0>         0.0140
      3 H1         -5.7885   -0.9504   -0.3653 H         1 <0>         0.0985
      4 C3         -7.2525   -2.5008   -0.2805 C.2       1 <0>         0.3133
      5 O1         -7.1978   -3.6946   -0.4872 O.2       1 <0>        -0.2755
      6 N1         -8.3812   -1.8195   -0.5601 N.am      1 <0>        -0.3296
      7 N2         -9.4914   -2.4903   -1.0896 N.2       1 <0>         0.0648
      8 C4        -10.6225   -1.8505   -1.2631 C.2       1 <0>         0.0181
      9 C5        -10.9191   -0.4735   -0.8182 C.ar      1 <0>        -0.1068
     10 C6        -10.2034    0.5147   -0.1589 C.ar      1 <0>        -0.1087
     11 C7        -10.8002    1.7337    0.1016 C.ar      1 <0>        -0.1049
     12 C8        -12.1053    1.9781   -0.2963 C.ar      1 <0>        -0.1262
     13 C9        -12.8310    1.0083   -0.9588 C.ar      1 <0>        -0.0773
     14 C10       -12.2466   -0.2250   -1.2297 C.ar      1 <0>        -0.1212
     15 C11       -12.7009   -1.4555   -1.8934 C.2       1 <0>         0.1891
     16 N3        -11.7325   -2.3397   -1.8793 N.2       1 <0>        -0.2116
     17 N4        -13.9515   -1.6499   -2.4453 N.pl3     1 <0>        -0.3667
     18 O2         -4.9576   -2.6851    0.3892 O.3       1 <0>        -0.1738
     19 C12        -3.7140   -2.1398    0.4623 C.ar      1 <0>         0.0593
     20 C13        -2.5952   -2.9593    0.4425 C.ar      1 <0>        -0.1132
     21 C14        -1.3320   -2.4053    0.5158 C.ar      1 <0>        -0.1209
     22 C15        -1.1824   -1.0295    0.6088 C.ar      1 <0>         0.0620
     23 C16        -2.3014   -0.2104    0.6339 C.ar      1 <0>        -0.1839
     24 C17        -3.5645   -0.7641    0.5562 C.ar      1 <0>        -0.1910
     25 O3          0.0612   -0.4842    0.6809 O.3       1 <0>        -0.2120
     26 C18         0.1408    0.9395    0.7749 C.3       1 <0>        -0.0618
     27 H2         -7.2429   -0.5495    1.6026 H         1 <0>         0.0738
     28 H3         -6.6731   -2.0693    2.3333 H         1 <0>         0.1093
     29 H4         -5.5395   -0.7185    2.0909 H         1 <0>         0.0969
     30 H5         -8.4249   -0.8647   -0.3947 H         1 <0>         0.2120
     31 H6         -9.1863    0.3307    0.1541 H         1 <0>         0.1247
     32 H7        -10.2454    2.5020    0.6196 H         1 <0>         0.1368
     33 H8        -12.5586    2.9355   -0.0858 H         1 <0>         0.1384
     34 H9        -13.8475    1.2062   -1.2656 H         1 <0>         0.1315
     35 H10       -14.1696   -2.4961   -2.8664 H         1 <0>         0.2441
     36 H11       -14.6120   -0.9403   -2.4120 H         1 <0>         0.2329
     37 H12        -2.7117   -4.0305    0.3694 H         1 <0>         0.1546
     38 H13        -0.4608   -3.0434    0.5004 H         1 <0>         0.1499
     39 H14        -2.1850    0.8606    0.7107 H         1 <0>         0.1345
     40 H15        -4.4357   -0.1260    0.5712 H         1 <0>         0.1318
     41 H16         1.1866    1.2424    0.8256 H         1 <0>         0.1080
     42 H17        -0.3253    1.3882   -0.1023 H         1 <0>         0.0661
     43 H18        -0.3782    1.2739    1.6732 H         1 <0>         0.0656
@<TRIPOS>BOND
     1    1    2 1
     2    1   27 1
     3    1   28 1
     4    1   29 1
     5    2    3 1
     6    2    4 1
     7    2   18 1
     8    4    5 2
     9    4    6 am
    10    6    7 1
    11    6   30 1
    12    7    8 2
    13    8   16 1
    14    8    9 1
    15    9   14 ar
    16    9   10 ar
    17   10   11 ar
    18   10   31 1
    19   11   12 ar
    20   11   32 1
    21   12   13 ar
    22   12   33 1
    23   13   14 ar
    24   13   34 1
    25   14   15 1
    26   15   16 2
    27   15   17 1
    28   17   35 1
    29   17   36 1
    30   18   19 1
    31   19   24 ar
    32   19   20 ar
    33   20   21 ar
    34   20   37 1
    35   21   22 ar
    36   21   38 1
    37   22   23 ar
    38   22   25 1
    39   23   24 ar
    40   23   39 1
    41   24   40 1
    42   25   26 1
    43   26   41 1
    44   26   42 1
    45   26   43 1
@<TRIPOS>MOLECULE
ZINC03890791
   44    47     0     0     0
SMALL
USER_CHARGES

@<TRIPOS>ATOM
      1 C1          5.9313   -6.4673    5.0301 C.3       1 <0>        -0.1762
      2 C2          4.9187   -7.2195    4.2055 C.ar      1 <0>        -0.0681
      3 C3          4.4849   -8.4670    4.6176 C.ar      1 <0>        -0.1272
      4 C4          3.5582   -9.1611    3.8676 C.ar      1 <0>        -0.0930
      5 C5          3.0579   -8.6017    2.6901 C.ar      1 <0>        -0.0202
      6 C6          3.5043   -7.3448    2.2771 C.ar      1 <0>        -0.1343
      7 C7          4.4267   -6.6591    3.0399 C.ar      1 <0>        -0.1228
      8 N1          2.1377   -9.2852    1.9408 N.2       1 <0>        -0.1590
      9 C8          1.0825   -8.6630    1.4698 C.2       1 <0>        -0.0140
     10 N2          0.1446   -9.3347    0.7124 N.am      1 <0>        -0.2921
     11 C9         -0.7487   -8.7387   -0.0673 C.2       1 <0>         0.3018
     12 O1         -1.4532   -9.4662   -0.7341 O.2       1 <0>        -0.3365
     13 C10        -0.9820   -7.2720   -0.2140 C.3       1 <0>        -0.1673
     14 C11         0.2619   -6.4544    0.1335 C.3       1 <0>        -0.2536
     15 H1          1.0486   -6.6513   -0.5948 H         1 <0>         0.1247
     16 S1          0.8269   -6.9422    1.7891 S.3       1 <0>         0.1640
     17 C12        -0.0787   -4.9865    0.1266 C.2       1 <0>         0.3189
     18 O2         -1.1783   -4.6173    0.4816 O.2       1 <0>        -0.3282
     19 N3          0.8384   -4.0837   -0.2739 N.am      1 <0>        -0.3132
     20 C13         0.5620   -2.7138   -0.1762 C.ar      1 <0>         0.0585
     21 C14        -0.2216   -2.2362    0.8657 C.ar      1 <0>        -0.1206
     22 C15        -0.4958   -0.8854    0.9628 C.ar      1 <0>        -0.0949
     23 C16         0.0108   -0.0037    0.0217 C.ar      1 <0>        -0.0061
     24 C17         0.7976   -0.4797   -1.0243 C.ar      1 <0>         0.0212
     25 C18         1.0712   -1.8339   -1.1213 C.ar      1 <0>        -0.1447
     26 O3          1.1687    0.5757   -1.8066 O.3       1 <0>        -0.2066
     27 C19         0.9430    1.7485   -1.0026 C.3       1 <0>         0.1074
     28 O4         -0.1109    1.3509   -0.1057 O.3       1 <0>        -0.2053
     29 H2          6.9361   -6.7264    4.6965 H         1 <0>         0.0884
     30 H3          5.7736   -5.3955    4.9100 H         1 <0>         0.0826
     31 H4          5.8165   -6.7360    6.0802 H         1 <0>         0.0836
     32 H5          4.8730   -8.8986    5.5284 H         1 <0>         0.1359
     33 H6          3.2202  -10.1346    4.1907 H         1 <0>         0.1445
     34 H7          3.1248   -6.9085    1.3650 H         1 <0>         0.1393
     35 H8          4.7691   -5.6847    2.7243 H         1 <0>         0.1319
     36 H9          0.1377  -10.3038    0.7526 H         1 <0>         0.2627
     37 H10        -1.7967   -6.9752    0.4465 H         1 <0>         0.1581
     38 H11        -1.2685   -7.0603   -1.2442 H         1 <0>         0.1397
     39 H12         1.6898   -4.3826   -0.6298 H         1 <0>         0.2365
     40 H13        -0.6175   -2.9212    1.6008 H         1 <0>         0.1689
     41 H14        -1.1059   -0.5162    1.7740 H         1 <0>         0.1508
     42 H15         1.6805   -2.2052   -1.9321 H         1 <0>         0.1439
     43 H16         0.6215    2.5836   -1.6250 H         1 <0>         0.1324
     44 H17         1.8424    2.0094   -0.4448 H         1 <0>         0.0883
@<TRIPOS>BOND
     1    1    2 1
     2    1   29 1
     3    1   30 1
     4    1   31 1
     5    2    7 ar
     6    2    3 ar
     7    3    4 ar
     8    3   32 1
     9    4    5 ar
    10    4   33 1
    11    5    6 ar
    12    5    8 1
    13    6    7 ar
    14    6   34 1
    15    7   35 1
    16    8    9 2
    17    9   16 1
    18    9   10 1
    19   10   11 am
    20   10   36 1
    21   11   12 2
    22   11   13 1
    23   13   14 1
    24   13   37 1
    25   13   38 1
    26   14   15 1
    27   14   16 1
    28   14   17 1
    29   17   18 2
    30   17   19 am
    31   19   20 1
    32   19   39 1
    33   20   25 ar
    34   20   21 ar
    35   21   22 ar
    36   21   40 1
    37   22   23 ar
    38   22   41 1
    39   23   28 1
    40   23   24 ar
    41   24   25 ar
    42   24   26 1
    43   25   42 1
    44   26   27 1
    45   27   28 1
    46   27   43 1
    47   27   44 1
@<TRIPOS>MOLECULE
ZINC03890793
   44    47     0     0     0
SMALL
USER_CHARGES

@<TRIPOS>ATOM
      1 C1         -5.8920   -0.4918    6.0455 C.3       1 <0>        -0.1756
      2 C2         -5.8248   -1.4319    4.8696 C.ar      1 <0>        -0.0741
      3 C3         -6.8324   -1.4217    3.9214 C.ar      1 <0>        -0.1217
      4 C4         -6.7777   -2.2803    2.8430 C.ar      1 <0>        -0.1001
      5 C5         -5.7021   -3.1606    2.7095 C.ar      1 <0>        -0.0068
      6 C6         -4.6915   -3.1692    3.6729 C.ar      1 <0>        -0.1422
      7 C7         -4.7561   -2.3016    4.7435 C.ar      1 <0>        -0.1142
      8 N1         -5.6415   -4.0155    1.6414 N.2       1 <0>        -0.1642
      9 C8         -4.5157   -4.1652    0.9838 C.2       1 <0>        -0.0137
     10 N2         -4.4352   -5.0217   -0.0953 N.am      1 <0>        -0.2923
     11 C9         -3.4685   -4.9865   -1.0037 C.2       1 <0>         0.3018
     12 O1         -3.5792   -5.7504   -1.9389 O.2       1 <0>        -0.3372
     13 C10        -2.2598   -4.1111   -1.0013 C.3       1 <0>        -0.1645
     14 C11        -2.4824   -2.8263   -0.2037 C.3       1 <0>        -0.2680
     15 H1         -3.2314   -2.2089   -0.6996 H         1 <0>         0.1288
     16 S1         -3.0632   -3.2740    1.4577 S.3       1 <0>         0.1706
     17 C12        -1.1865   -2.0643   -0.0990 C.2       1 <0>         0.3223
     18 O2         -0.1299   -2.6599   -0.1128 O.2       1 <0>        -0.3359
     19 N3         -1.2015   -0.7211    0.0101 N.am      1 <0>        -0.3128
     20 C13         0.0025   -0.0047    0.0100 C.ar      1 <0>         0.0560
     21 C14         1.1329   -0.5469    0.6066 C.ar      1 <0>        -0.1205
     22 C15         2.3211    0.1584    0.6074 C.ar      1 <0>        -0.0973
     23 C16         2.3879    1.4086    0.0138 C.ar      1 <0>        -0.0058
     24 C17         1.2555    1.9551   -0.5855 C.ar      1 <0>         0.0196
     25 C18         0.0652    1.2472   -0.5861 C.ar      1 <0>        -0.1437
     26 O3          1.5782    3.1813   -1.0912 O.3       1 <0>        -0.2069
     27 C19         2.8067    3.5551   -0.4400 C.3       1 <0>         0.1074
     28 O4          3.4204    2.2932   -0.1174 O.3       1 <0>        -0.2058
     29 H2         -6.4216   -0.9745    6.8669 H         1 <0>         0.0895
     30 H3         -4.8815   -0.2366    6.3648 H         1 <0>         0.0830
     31 H4         -6.4215    0.4157    5.7553 H         1 <0>         0.0825
     32 H5         -7.6638   -0.7403    4.0259 H         1 <0>         0.1359
     33 H6         -7.5652   -2.2718    2.1040 H         1 <0>         0.1443
     34 H7         -3.8590   -3.8507    3.5780 H         1 <0>         0.1411
     35 H8         -3.9732   -2.3047    5.4874 H         1 <0>         0.1355
     36 H9         -5.1294   -5.6916   -0.1964 H         1 <0>         0.2622
     37 H10        -2.0094   -3.8506   -2.0296 H         1 <0>         0.1403
     38 H11        -1.4258   -4.6596   -0.5635 H         1 <0>         0.1561
     39 H12        -2.0460   -0.2503    0.0887 H         1 <0>         0.2390
     40 H13         1.0836   -1.5210    1.0703 H         1 <0>         0.1736
     41 H14         3.1992   -0.2654    1.0718 H         1 <0>         0.1501
     42 H15        -0.8128    1.6672   -1.0541 H         1 <0>         0.1439
     43 H16         2.6018    4.1242    0.4668 H         1 <0>         0.0880
     44 H17         3.4418    4.1283   -1.1153 H         1 <0>         0.1319
@<TRIPOS>BOND
     1    1    2 1
     2    1   29 1
     3    1   30 1
     4    1   31 1
     5    2    7 ar
     6    2    3 ar
     7    3    4 ar
     8    3   32 1
     9    4    5 ar
    10    4   33 1
    11    5    6 ar
    12    5    8 1
    13    6    7 ar
    14    6   34 1
    15    7   35 1
    16    8    9 2
    17    9   16 1
    18    9   10 1
    19   10   11 am
    20   10   36 1
    21   11   12 2
    22   11   13 1
    23   13   14 1
    24   13   37 1
    25   13   38 1
    26   14   15 1
    27   14   16 1
    28   14   17 1
    29   17   18 2
    30   17   19 am
    31   19   20 1
    32   19   39 1
    33   20   25 ar
    34   20   21 ar
    35   21   22 ar
    36   21   40 1
    37   22   23 ar
    38   22   41 1
    39   23   28 1
    40   23   24 ar
    41   24   25 ar
    42   24   26 1
    43   25   42 1
    44   26   27 1
    45   27   28 1
    46   27   43 1
    47   27   44 1
@<TRIPOS>MOLECULE
ZINC03890932
   41    44     0     0     0
SMALL
USER_CHARGES

@<TRIPOS>ATOM
      1 C1         -5.9797   -0.8432    0.1954 C.3       1 <0>        -0.0653
      2 O1         -4.8289   -0.0284   -0.0367 O.3       1 <0>        -0.2061
      3 C2         -3.6265   -0.6541   -0.0602 C.ar      1 <0>         0.1382
      4 C3         -3.5602   -2.0182    0.1358 C.ar      1 <0>        -0.2519
      5 C4         -2.3543   -2.6959    0.1206 C.ar      1 <0>        -0.0441
      6 C5         -1.1581   -2.0131   -0.0958 C.ar      1 <0>        -0.1773
      7 C6         -1.1996   -0.5643   -0.3009 C.ar      1 <0>         0.0230
      8 C7         -2.4515    0.0946   -0.2844 C.ar      1 <0>        -0.0651
      9 C8         -2.4994    1.4830   -0.4862 C.ar      1 <0>        -0.0830
     10 C9         -1.3443    2.1731   -0.7002 C.ar      1 <0>        -0.1454
     11 C10        -0.1144    1.5213   -0.7219 C.ar      1 <0>        -0.0990
     12 C11        -0.0330    0.1736   -0.5293 C.ar      1 <0>        -0.1391
     13 C12         0.1174   -2.7316   -0.1116 C.2       1 <0>         0.0319
     14 N1          0.1523   -3.9952   -0.4490 N.2       1 <0>        -0.1355
     15 C13        -0.9577   -4.5934   -0.9658 C.ar      1 <0>         0.0642
     16 C14        -1.6033   -4.0451   -2.0826 C.ar      1 <0>        -0.1452
     17 C15        -2.7254   -4.6505   -2.6051 C.ar      1 <0>        -0.1020
     18 C16        -3.2357   -5.8093   -2.0386 C.ar      1 <0>        -0.0978
     19 C17        -2.6156   -6.3718   -0.9333 C.ar      1 <0>        -0.0885
     20 C18        -1.4668   -5.7649   -0.3865 C.ar      1 <0>        -0.1286
     21 C19        -0.8301   -6.3868    0.7879 C.2       1 <0>         0.3527
     22 O2          0.1618   -5.8872    1.2830 O.2       1 <0>        -0.3261
     23 N2         -1.3552   -7.5126    1.3095 N.am      1 <0>        -0.2839
     24 H1         -0.9171   -7.9280    2.1067 H         1 <0>         0.2658
     25 N3         -2.4921   -8.1165    0.7706 N.am      1 <0>        -0.2754
     26 H2         -2.8443   -8.9518    1.1928 H         1 <0>         0.2657
     27 C20        -3.1291   -7.6071   -0.3019 C.2       1 <0>         0.3528
     28 O3         -4.1169   -8.1580   -0.7470 O.2       1 <0>        -0.3554
     29 H3         -6.8736   -0.2195    0.1893 H         1 <0>         0.1121
     30 H4         -6.0564   -1.5957   -0.5893 H         1 <0>         0.0734
     31 H5         -5.8869   -1.3357    1.1633 H         1 <0>         0.0745
     32 H6         -4.4725   -2.5706    0.3056 H         1 <0>         0.1400
     33 H7         -2.3394   -3.7643    0.2776 H         1 <0>         0.1519
     34 H8         -3.4468    2.0013   -0.4716 H         1 <0>         0.1474
     35 H9         -1.3834    3.2413   -0.8550 H         1 <0>         0.1328
     36 H10         0.7873    2.0906   -0.8931 H         1 <0>         0.1318
     37 H11         0.9270   -0.3207   -0.5488 H         1 <0>         0.1360
     38 H12         1.0295   -2.2185    0.1552 H         1 <0>         0.1712
     39 H13        -1.2190   -3.1434   -2.5362 H         1 <0>         0.1508
     40 H14        -3.2159   -4.2152   -3.4632 H         1 <0>         0.1405
     41 H15        -4.1162   -6.2732   -2.4581 H         1 <0>         0.1581
@<TRIPOS>BOND
     1    1    2 1
     2    1   29 1
     3    1   30 1
     4    1   31 1
     5    2    3 1
     6    3    8 ar
     7    3    4 ar
     8    4    5 ar
     9    4   32 1
    10    5    6 ar
    11    5   33 1
    12    6    7 ar
    13    6   13 1
    14    7   12 ar
    15    7    8 ar
    16    8    9 ar
    17    9   10 ar
    18    9   34 1
    19   10   11 ar
    20   10   35 1
    21   11   12 ar
    22   11   36 1
    23   12   37 1
    24   13   14 2
    25   13   38 1
    26   14   15 1
    27   15   20 ar
    28   15   16 ar
    29   16   17 ar
    30   16   39 1
    31   17   18 ar
    32   17   40 1
    33   18   19 ar
    34   18   41 1
    35   19   27 1
    36   19   20 ar
    37   20   21 1
    38   21   22 2
    39   21   23 am
    40   23   24 1
    41   23   25 1
    42   25   26 1
    43   25   27 am
    44   27   28 2
@<TRIPOS>MOLECULE
ZINC03890933
   42    44     0     0     0
SMALL
USER_CHARGES

@<TRIPOS>ATOM
      1 C1         -0.8980    4.0910   -0.3866 C.3       1 <0>        -0.2288
      2 C2         -0.5277    3.7777    1.0645 C.3       1 <0>         0.0467
      3 H1          0.1503    4.5441    1.4400 H         1 <0>         0.1215
      4 C3         -1.7764    3.7548    1.9078 C.2       1 <0>         0.2941
      5 O1         -2.1501    2.7157    2.4102 O.2       1 <0>        -0.2800
      6 N1         -2.4781    4.8887    2.1039 N.am      1 <0>        -0.3484
      7 N2         -3.5784    4.8904    2.9712 N.2       1 <0>         0.0261
      8 C4         -4.3179    5.9517    3.0792 C.2       1 <0>        -0.1076
      9 C5         -4.1628    7.0588    2.1189 C.ar      1 <0>        -0.0827
     10 C6         -3.6721    6.8105    0.8350 C.ar      1 <0>        -0.1722
     11 C7         -3.5333    7.8539   -0.0626 C.ar      1 <0>         0.0916
     12 C8         -3.8710    9.1475    0.3134 C.ar      1 <0>        -0.1977
     13 C9         -4.3526    9.4017    1.5835 C.ar      1 <0>        -0.1121
     14 C10        -4.5015    8.3664    2.4913 C.ar      1 <0>         0.0548
     15 O2         -4.9743    8.6182    3.7401 O.3       1 <0>        -0.2848
     16 O3         -3.0598    7.6133   -1.3144 O.3       1 <0>        -0.2131
     17 C11        -2.9359    8.7371   -2.1883 C.3       1 <0>        -0.0639
     18 N3          0.1295    2.4700    1.1294 N.pl3     1 <0>        -0.1841
     19 C12         1.3998    2.2095    1.5855 C.ar      1 <0>        -0.0204
     20 C13         2.4216    2.9985    2.1030 C.ar      1 <0>        -0.1438
     21 C14         3.6000    2.4203    2.4834 C.ar      1 <0>        -0.0872
     22 C15         3.7880    1.0498    2.3572 C.ar      1 <0>        -0.1583
     23 C16         2.8017    0.2542    1.8522 C.ar      1 <0>        -0.0444
     24 C17         1.5836    0.8220    1.4552 C.ar      1 <0>        -0.1154
     25 N4          0.4523    0.3064    0.9344 N.2       1 <0>        -0.0733
     26 N5         -0.4108    1.2383    0.7307 N.2       1 <0>         0.0731
     27 H2         -1.6444    3.3764   -0.7335 H         1 <0>         0.1134
     28 H3         -1.3051    5.1003   -0.4479 H         1 <0>         0.0881
     29 H4         -0.0083    4.0195   -1.0122 H         1 <0>         0.0985
     30 H5         -2.2213    5.7035    1.6446 H         1 <0>         0.2268
     31 H6         -5.0468    6.0234    3.8729 H         1 <0>         0.2003
     32 H7         -3.4052    5.8057    0.5424 H         1 <0>         0.1640
     33 H8         -3.7570    9.9588   -0.3903 H         1 <0>         0.1426
     34 H9         -4.6131   10.4102    1.8690 H         1 <0>         0.1465
     35 H10        -4.2950    8.8977    4.3689 H         1 <0>         0.2297
     36 H11        -3.9137    9.1978   -2.3286 H         1 <0>         0.0738
     37 H12        -2.2513    9.4638   -1.7509 H         1 <0>         0.0680
     38 H13        -2.5481    8.4070   -3.1520 H         1 <0>         0.1140
     39 H14         2.2839    4.0648    2.2046 H         1 <0>         0.1270
     40 H15         4.3923    3.0344    2.8854 H         1 <0>         0.1344
     41 H16         4.7255    0.6092    2.6627 H         1 <0>         0.1368
     42 H17         2.9593   -0.8102    1.7584 H         1 <0>         0.1466
@<TRIPOS>BOND
     1    1    2 1
     2    1   27 1
     3    1   28 1
     4    1   29 1
     5    2    3 1
     6    2    4 1
     7    2   18 1
     8    4    5 2
     9    4    6 am
    10    6    7 1
    11    6   30 1
    12    7    8 2
    13    8    9 1
    14    8   31 1
    15    9   14 ar
    16    9   10 ar
    17   10   11 ar
    18   10   32 1
    19   11   12 ar
    20   11   16 1
    21   12   13 ar
    22   12   33 1
    23   13   14 ar
    24   13   34 1
    25   14   15 1
    26   15   35 1
    27   16   17 1
    28   17   36 1
    29   17   37 1
    30   17   38 1
    31   18   26 1
    32   18   19 1
    33   19   24 ar
    34   19   20 ar
    35   20   21 ar
    36   20   39 1
    37   21   22 ar
    38   21   40 1
    39   22   23 ar
    40   22   41 1
    41   23   24 ar
    42   23   42 1
    43   24   25 1
    44   25   26 2
@<TRIPOS>MOLECULE
ZINC03890998
   44    45     0     0     0
SMALL
USER_CHARGES

@<TRIPOS>ATOM
      1 C1          3.2056    2.1713    1.4023 C.3       1 <0>        -0.1869
      2 C2          2.1947    1.2398    0.7304 C.3       1 <0>        -0.0935
      3 C3          2.0354   -0.0299    1.5691 C.3       1 <0>        -0.2012
      4 C4          2.6940    0.8684   -0.6673 C.3       1 <0>        -0.2023
      5 C5          0.8642    1.9387    0.6193 C.2       1 <0>         0.3083
      6 O1          0.7371    3.0704    1.0364 O.2       1 <0>        -0.3488
      7 N1         -0.1843    1.3061    0.0564 N.am      1 <0>        -0.3232
      8 C6         -1.4381    1.9161    0.0372 C.ar      1 <0>         0.0589
      9 C7         -1.5364    3.2962   -0.1089 C.ar      1 <0>        -0.1401
     10 C8         -2.7729    3.9011   -0.1331 C.ar      1 <0>        -0.0896
     11 C9         -3.9298    3.1284   -0.0000 C.ar      1 <0>        -0.1223
     12 C10        -3.8272    1.7428    0.1519 C.ar      1 <0>        -0.0600
     13 C11        -2.5878    1.1438    0.1700 C.ar      1 <0>        -0.1799
     14 C12        -5.2567    3.7739   -0.0203 C.2       1 <0>         0.3229
     15 O2         -6.2624    3.1001    0.0952 O.2       1 <0>        -0.3808
     16 N2         -5.3538    5.1101   -0.1669 N.am      1 <0>        -0.2685
     17 C13        -6.6028    5.7363   -0.0696 C.ar      1 <0>        -0.1031
     18 C14        -7.6251    5.1404    0.6548 C.ar      1 <0>        -0.0371
     19 C15        -8.8566    5.7602    0.7494 C.ar      1 <0>        -0.2470
     20 C16        -9.0735    6.9740    0.1234 C.ar      1 <0>        -0.0409
     21 C17        -8.0597    7.5739   -0.6002 C.ar      1 <0>        -0.2681
     22 C18        -6.8203    6.9619   -0.6951 C.ar      1 <0>         0.2341
     23 N3         -9.9461    5.1234    1.5230 N.pl3     1 <0>         0.5714
     24 O3         -9.7566    4.0545    2.0753 O.2       1 <0>        -0.4155
     25 O4        -11.0321    5.6684    1.6073 O.3       1 <0>        -0.4334
     26 H1          2.8499    2.4358    2.3981 H         1 <0>         0.0921
     27 H2          4.1679    1.6657    1.4827 H         1 <0>         0.0673
     28 H3          3.3191    3.0758    0.8048 H         1 <0>         0.0904
     29 H4          1.3152   -0.6935    1.0905 H         1 <0>         0.0709
     30 H5          2.9977   -0.5354    1.6495 H         1 <0>         0.0779
     31 H6          1.6797    0.2347    2.5649 H         1 <0>         0.0889
     32 H7          2.8076    1.7730   -1.2648 H         1 <0>         0.0873
     33 H8          3.6564    0.3629   -0.5869 H         1 <0>         0.0789
     34 H9          1.9739    0.2048   -1.1460 H         1 <0>         0.0700
     35 H10        -0.0659    0.4283   -0.3389 H         1 <0>         0.2286
     36 H11        -0.6419    3.8933   -0.2076 H         1 <0>         0.1609
     37 H12        -2.8486    4.9720   -0.2511 H         1 <0>         0.1455
     38 H13        -4.7192    1.1427    0.2547 H         1 <0>         0.1580
     39 H14        -2.5079    0.0732    0.2871 H         1 <0>         0.1227
     40 H15        -4.5587    5.6381   -0.3399 H         1 <0>         0.2407
     41 H16        -7.4583    4.1926    1.1450 H         1 <0>         0.1709
     42 H17       -10.0377    7.4546    0.1998 H         1 <0>         0.1243
     43 H18        -8.2325    8.5219   -1.0878 H         1 <0>         0.1292
     44 O5         -5.8203    7.5536   -1.4014 O.3       1 <0>        -0.5577
@<TRIPOS>BOND
     1    1    2 1
     2    1   26 1
     3    1   27 1
     4    1   28 1
     5    2    3 1
     6    2    4 1
     7    2    5 1
     8    3   29 1
     9    3   30 1
    10    3   31 1
    11    4   32 1
    12    4   33 1
    13    4   34 1
    14    5    6 2
    15    5    7 am
    16    7    8 1
    17    7   35 1
    18    8   13 ar
    19    8    9 ar
    20    9   10 ar
    21    9   36 1
    22   10   11 ar
    23   10   37 1
    24   11   12 ar
    25   11   14 1
    26   12   13 ar
    27   12   38 1
    28   13   39 1
    29   14   15 2
    30   14   16 am
    31   16   17 1
    32   16   40 1
    33   17   22 ar
    34   17   18 ar
    35   18   19 ar
    36   18   41 1
    37   19   20 ar
    38   19   23 1
    39   20   21 ar
    40   20   42 1
    41   21   22 ar
    42   21   43 1
    43   22   44 1
    44   23   24 2
    45   23   25 1
@<TRIPOS>MOLECULE
ZINC03891492
   43    45     0     0     0
SMALL
USER_CHARGES

@<TRIPOS>ATOM
      1 C1          2.3912   -7.8962   -1.9367 C.3       1 <0>        -0.2107
      2 C2          2.1666   -6.4663   -1.4410 C.3       1 <0>        -0.0184
      3 O1          0.8850   -6.3747   -0.8157 O.3       1 <0>        -0.2017
      4 C3          0.5268   -5.1614   -0.3166 C.ar      1 <0>         0.0607
      5 C4          1.3857   -4.0880   -0.4313 C.ar      1 <0>        -0.1762
      6 C5          1.0146   -2.8394    0.0891 C.ar      1 <0>        -0.0852
      7 C6         -0.2321   -2.6881    0.7138 C.ar      1 <0>        -0.0696
      8 C7         -1.0832   -3.7641    0.8186 C.ar      1 <0>        -0.1316
      9 C8         -0.7115   -5.0018    0.3070 C.ar      1 <0>         0.0728
     10 O2         -1.5560   -6.0590    0.4139 O.3       1 <0>        -0.2778
     11 C9          1.9225   -1.6970   -0.0247 C.2       1 <0>         0.0870
     12 C10         1.4192   -0.4392   -0.2828 C.2       1 <0>        -0.2842
     13 C11         2.1510    0.8424   -0.2619 C.2       1 <0>         0.3578
     14 O3          3.3309    0.9993   -0.0109 O.2       1 <0>        -0.3333
     15 N1          1.2621    1.8046   -0.5734 N.am      1 <0>        -0.2827
     16 N2          0.0007    1.2536   -0.7978 N.am      1 <0>        -0.1688
     17 C12         0.0322   -0.0831   -0.6388 C.2       1 <0>         0.3591
     18 O4         -0.9035   -0.8503   -0.7649 O.2       1 <0>        -0.3321
     19 C13        -1.1379    1.9871   -1.1457 C.ar      1 <0>         0.0748
     20 C14        -2.3466    1.3368   -1.3588 C.ar      1 <0>        -0.1530
     21 C15        -3.4702    2.0647   -1.6981 C.ar      1 <0>        -0.0988
     22 C16        -3.3906    3.4384   -1.8350 C.ar      1 <0>        -0.0961
     23 C17        -2.1876    4.0884   -1.6286 C.ar      1 <0>        -0.0995
     24 C18        -1.0614    3.3670   -1.2845 C.ar      1 <0>        -0.1688
     25 C19        -4.6175    4.2289   -2.2104 C.3       1 <0>        -0.1724
     26 H1          3.3689   -7.9661   -2.4137 H         1 <0>         0.0867
     27 H2          2.3489   -8.5843   -1.0924 H         1 <0>         0.0914
     28 H3          1.6160   -8.1570   -2.6572 H         1 <0>         0.0884
     29 H4          2.2090   -5.7782   -2.2853 H         1 <0>         0.0723
     30 H5          2.9419   -6.2055   -0.7205 H         1 <0>         0.0741
     31 H6          2.3426   -4.2096   -0.9170 H         1 <0>         0.1410
     32 H7         -0.5237   -1.7277    1.1127 H         1 <0>         0.1501
     33 H8         -2.0431   -3.6466    1.2995 H         1 <0>         0.1503
     34 H9         -2.1643   -6.1535   -0.3319 H         1 <0>         0.2304
     35 H10         2.9866   -1.8390    0.0934 H         1 <0>         0.1586
     36 H11         1.4703    2.7501   -0.6338 H         1 <0>         0.2745
     37 H12        -2.4085    0.2635   -1.2557 H         1 <0>         0.1810
     38 H13        -4.4111    1.5600   -1.8603 H         1 <0>         0.1387
     39 H14        -2.1288    5.1614   -1.7364 H         1 <0>         0.1350
     40 H15        -0.1222    3.8752   -1.1231 H         1 <0>         0.1255
     41 H16        -4.6817    4.3065   -3.2957 H         1 <0>         0.0868
     42 H17        -5.5054    3.7245   -1.8291 H         1 <0>         0.0828
     43 H18        -4.5529    5.2273   -1.7779 H         1 <0>         0.0814
@<TRIPOS>BOND
     1    1    2 1
     2    1   26 1
     3    1   27 1
     4    1   28 1
     5    2    3 1
     6    2   29 1
     7    2   30 1
     8    3    4 1
     9    4    9 ar
    10    4    5 ar
    11    5    6 ar
    12    5   31 1
    13    6    7 ar
    14    6   11 1
    15    7    8 ar
    16    7   32 1
    17    8    9 ar
    18    8   33 1
    19    9   10 1
    20   10   34 1
    21   11   12 2
    22   11   35 1
    23   12   17 1
    24   12   13 1
    25   13   14 2
    26   13   15 am
    27   15   16 1
    28   15   36 1
    29   16   17 am
    30   16   19 1
    31   17   18 2
    32   19   24 ar
    33   19   20 ar
    34   20   21 ar
    35   20   37 1
    36   21   22 ar
    37   21   38 1
    38   22   23 ar
    39   22   25 1
    40   23   24 ar
    41   23   39 1
    42   24   40 1
    43   25   41 1
    44   25   42 1
    45   25   43 1
@<TRIPOS>MOLECULE
ZINC03891757
   39    40     0     0     0
SMALL
USER_CHARGES

@<TRIPOS>ATOM
      1 C1          1.2289   -2.1857   -0.0219 C.3       1 <0>        -0.1836
      2 C2          1.2084   -0.6789   -0.0136 C.ar      1 <0>        -0.0216
      3 C3          0.0021   -0.0041    0.0020 C.ar      1 <0>        -0.1556
      4 C4         -0.0167    1.3781    0.0096 C.ar      1 <0>        -0.0254
      5 C5          1.1709    2.0855    0.0021 C.ar      1 <0>        -0.7595
      6 C6          2.3773    1.4107   -0.0136 C.ar      1 <0>        -0.0127
      7 C7          2.3961    0.0285   -0.0212 C.ar      1 <0>        -0.1593
      8 S1          1.1470    3.8473    0.0112 S.o2      1 <0>         2.7811
      9 O1          2.3816    4.2732   -0.5490 O.2       1 <0>        -0.8911
     10 O2         -0.1088    4.2393   -0.5259 O.2       1 <0>        -0.9146
     11 N1          1.1552    4.3289    1.5957 N.pl3     1 <0>        -0.8090
     12 N2          2.2188    3.9665    2.4325 N.2       1 <0>        -0.0056
     13 C8          2.2253    4.3441    3.6749 C.2       1 <0>        -0.0072
     14 C9          1.0886    5.1721    4.2166 C.3       1 <0>        -0.2040
     15 C10         3.3426    3.9634    4.5540 C.2       1 <0>        -0.2206
     16 C11         3.2981    2.7773    5.2934 C.2       1 <0>         0.1980
     17 C12         4.3957    2.4548    6.1158 C.2       1 <0>        -0.3017
     18 C13         5.4523    3.2886    6.1856 C.2       1 <0>         0.1278
     19 O3          5.4936    4.4286    5.4814 O.3       1 <0>        -0.1586
     20 C14         4.4831    4.7924    4.6740 C.2       1 <0>         0.3637
     21 O4          4.5489    5.8348    4.0456 O.2       1 <0>        -0.2908
     22 C15         6.6145    2.9307    7.0756 C.3       1 <0>        -0.1763
     23 O5          2.2263    1.9542    5.2164 O.3       1 <0>        -0.2858
     24 H1          1.2236   -2.5435   -1.0515 H         1 <0>         0.0954
     25 H2          2.1288   -2.5396    0.4811 H         1 <0>         0.0844
     26 H3          0.3491   -2.5639    0.4987 H         1 <0>         0.0854
     27 H4         -0.9258   -0.5567    0.0079 H         1 <0>         0.1362
     28 H5         -0.9592    1.9054    0.0170 H         1 <0>         0.1480
     29 H6          3.3052    1.9634   -0.0192 H         1 <0>         0.1577
     30 H7          3.3386   -0.4987   -0.0327 H         1 <0>         0.1359
     31 H8          0.4236    4.8618    1.9444 H         1 <0>         0.2306
     32 H9          0.3148    4.5133    4.6107 H         1 <0>         0.0989
     33 H10         1.4571    5.8175    5.0140 H         1 <0>         0.1037
     34 H11         0.6718    5.7845    3.4170 H         1 <0>         0.0887
     35 H12         4.3885    1.5422    6.6932 H         1 <0>         0.1645
     36 H13         7.3746    3.7094    7.0112 H         1 <0>         0.1110
     37 H14         6.2698    2.8437    8.1060 H         1 <0>         0.1096
     38 H15         7.0398    1.9803    6.7532 H         1 <0>         0.1083
     39 H16         2.2949    1.2829    4.5238 H         1 <0>         0.2540
@<TRIPOS>BOND
     1    1    2 1
     2    1   24 1
     3    1   25 1
     4    1   26 1
     5    2    7 ar
     6    2    3 ar
     7    3    4 ar
     8    3   27 1
     9    4    5 ar
    10    4   28 1
    11    5    6 ar
    12    5    8 1
    13    6    7 ar
    14    6   29 1
    15    7   30 1
    16    8    9 2
    17    8   10 2
    18    8   11 1
    19   11   12 1
    20   11   31 1
    21   12   13 2
    22   13   14 1
    23   13   15 1
    24   14   32 1
    25   14   33 1
    26   14   34 1
    27   15   20 1
    28   15   16 2
    29   16   17 1
    30   16   23 1
    31   17   18 2
    32   17   35 1
    33   18   19 1
    34   18   22 1
    35   19   20 1
    36   20   21 2
    37   22   36 1
    38   22   37 1
    39   22   38 1
    40   23   39 1
@<TRIPOS>MOLECULE
ZINC03891868
   41    42     0     0     0
SMALL
USER_CHARGES

@<TRIPOS>ATOM
      1 C1          2.0595    2.8051    4.6171 C.3       1 <0>        -0.2388
      2 C2          0.7617    3.1755    3.9465 C.2       1 <0>         0.3017
      3 O1          0.3755    4.3249    3.9662 O.2       1 <0>        -0.3528
      4 N1          0.0303    2.2293    3.3250 N.am      1 <0>        -0.3298
      5 C3         -1.2102    2.5548    2.7773 C.ar      1 <0>         0.0841
      6 C4         -1.4044    3.8015    2.1910 C.ar      1 <0>        -0.1349
      7 C5         -2.6260    4.1240    1.6443 C.ar      1 <0>        -0.0886
      8 C6         -3.6752    3.2016    1.6890 C.ar      1 <0>        -0.1484
      9 C7         -3.4783    1.9522    2.2839 C.ar      1 <0>        -0.0468
     10 C8         -2.2524    1.6342    2.8236 C.ar      1 <0>        -0.1741
     11 C9         -4.9876    3.5458    1.1091 C.2       1 <0>         0.3616
     12 O2         -5.9271    2.7838    1.2355 O.2       1 <0>        -0.3254
     13 N2         -5.1453    4.7047    0.4392 N.am      1 <0>        -0.3471
     14 N3         -6.3600    4.9843   -0.2004 N.2       1 <0>         0.0248
     15 C10        -6.4755    6.0459   -0.9387 C.2       1 <0>        -0.1143
     16 C11        -5.2840    6.8492   -1.2656 C.ar      1 <0>        -0.0788
     17 C12        -4.0203    6.2546   -1.2844 C.ar      1 <0>        -0.1755
     18 C13        -2.9069    7.0140   -1.5969 C.ar      1 <0>         0.0928
     19 C14        -3.0421    8.3666   -1.8811 C.ar      1 <0>        -0.1997
     20 C15        -4.2884    8.9631   -1.8594 C.ar      1 <0>        -0.1122
     21 C16        -5.4128    8.2145   -1.5535 C.ar      1 <0>         0.0528
     22 O3         -6.6376    8.8026   -1.5321 O.3       1 <0>        -0.2862
     23 O4         -1.6765    6.4355   -1.6211 O.3       1 <0>        -0.2106
     24 C17        -0.5695    7.2786   -1.9464 C.3       1 <0>        -0.0637
     25 H1          2.8776    2.9005    3.9030 H         1 <0>         0.1065
     26 H2          2.2350    3.4712    5.4618 H         1 <0>         0.1202
     27 H3          2.0047    1.7757    4.9713 H         1 <0>         0.0859
     28 H4          0.3685    1.3229    3.2552 H         1 <0>         0.2347
     29 H5         -0.5946    4.5154    2.1607 H         1 <0>         0.1671
     30 H6         -2.7747    5.0901    1.1850 H         1 <0>         0.1322
     31 H7         -4.2868    1.2371    2.3198 H         1 <0>         0.1599
     32 H8         -2.0994    0.6689    3.2831 H         1 <0>         0.1358
     33 H9         -4.4178    5.3451    0.4000 H         1 <0>         0.2333
     34 H10        -7.4447    6.3403   -1.3133 H         1 <0>         0.1973
     35 H11        -3.9130    5.2039   -1.0592 H         1 <0>         0.1679
     36 H12        -2.1688    8.9552   -2.1207 H         1 <0>         0.1414
     37 H13        -4.3859   10.0156   -2.0812 H         1 <0>         0.1449
     38 H14        -6.8540    9.2301   -0.6922 H         1 <0>         0.2295
     39 H15         0.3499    6.6934   -1.9304 H         1 <0>         0.1127
     40 H16        -0.7143    7.7008   -2.9408 H         1 <0>         0.0712
     41 H17        -0.4998    8.0847   -1.2160 H         1 <0>         0.0694
@<TRIPOS>BOND
     1    1    2 1
     2    1   25 1
     3    1   26 1
     4    1   27 1
     5    2    3 2
     6    2    4 am
     7    4    5 1
     8    4   28 1
     9    5   10 ar
    10    5    6 ar
    11    6    7 ar
    12    6   29 1
    13    7    8 ar
    14    7   30 1
    15    8    9 ar
    16    8   11 1
    17    9   10 ar
    18    9   31 1
    19   10   32 1
    20   11   12 2
    21   11   13 am
    22   13   14 1
    23   13   33 1
    24   14   15 2
    25   15   16 1
    26   15   34 1
    27   16   21 ar
    28   16   17 ar
    29   17   18 ar
    30   17   35 1
    31   18   19 ar
    32   18   23 1
    33   19   20 ar
    34   19   36 1
    35   20   21 ar
    36   20   37 1
    37   21   22 1
    38   22   38 1
    39   23   24 1
    40   24   39 1
    41   24   40 1
    42   24   41 1
@<TRIPOS>MOLECULE
ZINC03891962
   41    42     0     0     0
SMALL
USER_CHARGES

@<TRIPOS>ATOM
      1 C1         -8.8410    3.8075   -3.7372 C.3       1 <0>        -0.2355
      2 C2         -7.6227    3.0162   -3.3363 C.2       1 <0>         0.2981
      3 O1         -6.5283    3.3370   -3.7491 O.2       1 <0>        -0.3424
      4 N1         -7.7493    1.9519   -2.5190 N.am      1 <0>        -0.3322
      5 C3         -6.6091    1.2824   -2.0602 C.ar      1 <0>         0.0551
      6 C4         -6.6414   -0.0939   -1.8685 C.ar      1 <0>        -0.1413
      7 C5         -5.5181   -0.7600   -1.4160 C.ar      1 <0>        -0.1177
      8 C6         -4.3553   -0.0637   -1.1557 C.ar      1 <0>        -0.1242
      9 C7         -4.3139    1.3195   -1.3403 C.ar      1 <0>        -0.1110
     10 C8         -5.4478    1.9916   -1.7976 C.ar      1 <0>        -0.0639
     11 C9         -3.0712    2.0684   -1.0583 C.2       1 <0>         0.3598
     12 O2         -3.0619    3.2819   -1.1356 O.2       1 <0>        -0.3136
     13 N2         -1.9485    1.4064   -0.7155 N.am      1 <0>        -0.3436
     14 N3         -0.8001    2.1189   -0.3463 N.2       1 <0>         0.0297
     15 C10         0.2440    1.4849    0.0933 C.2       1 <0>        -0.1125
     16 C11         0.1534    0.0493    0.4138 C.ar      1 <0>        -0.0785
     17 C12        -1.0669   -0.5069    0.8042 C.ar      1 <0>        -0.1722
     18 C13        -1.1455   -1.8564    1.0984 C.ar      1 <0>         0.0903
     19 C14        -0.0125   -2.6554    1.0176 C.ar      1 <0>        -0.1998
     20 C15         1.1995   -2.1113    0.6372 C.ar      1 <0>        -0.1129
     21 C16         1.2923   -0.7631    0.3340 C.ar      1 <0>         0.0533
     22 O3          2.4849   -0.2294   -0.0395 O.3       1 <0>        -0.2836
     23 O4         -2.3340   -2.4007    1.4732 O.3       1 <0>        -0.2121
     24 C17        -2.3428   -3.7988    1.7685 C.3       1 <0>        -0.0638
     25 H1         -9.7258    3.3728   -3.2721 H         1 <0>         0.0766
     26 H2         -8.7278    4.8404   -3.4080 H         1 <0>         0.1169
     27 H3         -8.9505    3.7816   -4.8213 H         1 <0>         0.1144
     28 H4         -8.6306    1.6500   -2.2488 H         1 <0>         0.2323
     29 H5         -7.5474   -0.6448   -2.0742 H         1 <0>         0.1309
     30 H6         -5.5492   -1.8295   -1.2693 H         1 <0>         0.1344
     31 H7         -3.4784   -0.5883   -0.8059 H         1 <0>         0.1303
     32 H8         -5.4208    3.0610   -1.9459 H         1 <0>         0.1852
     33 H9         -1.9355    0.4365   -0.7243 H         1 <0>         0.2317
     34 H10         1.1801    2.0084    0.2199 H         1 <0>         0.1897
     35 H11        -1.9480    0.1140    0.8718 H         1 <0>         0.1663
     36 H12        -0.0790   -3.7074    1.2529 H         1 <0>         0.1410
     37 H13         2.0764   -2.7387    0.5765 H         1 <0>         0.1450
     38 H14         3.0480    0.0323    0.7018 H         1 <0>         0.2275
     39 H15        -1.6559   -4.0010    2.5903 H         1 <0>         0.0709
     40 H16        -3.3498   -4.1037    2.0532 H         1 <0>         0.1120
     41 H17        -2.0294   -4.3583    0.8871 H         1 <0>         0.0695
@<TRIPOS>BOND
     1    1    2 1
     2    1   25 1
     3    1   26 1
     4    1   27 1
     5    2    3 2
     6    2    4 am
     7    4    5 1
     8    4   28 1
     9    5   10 ar
    10    5    6 ar
    11    6    7 ar
    12    6   29 1
    13    7    8 ar
    14    7   30 1
    15    8    9 ar
    16    8   31 1
    17    9   10 ar
    18    9   11 1
    19   10   32 1
    20   11   12 2
    21   11   13 am
    22   13   14 1
    23   13   33 1
    24   14   15 2
    25   15   16 1
    26   15   34 1
    27   16   21 ar
    28   16   17 ar
    29   17   18 ar
    30   17   35 1
    31   18   19 ar
    32   18   23 1
    33   19   20 ar
    34   19   36 1
    35   20   21 ar
    36   20   37 1
    37   21   22 1
    38   22   38 1
    39   23   24 1
    40   24   39 1
    41   24   40 1
    42   24   41 1
@<TRIPOS>MOLECULE
ZINC03892014
   39    40     0     0     0
SMALL
USER_CHARGES

@<TRIPOS>ATOM
      1 C1        -10.2781    0.0953    1.1412 C.3       1 <0>        -0.1647
      2 C2         -9.7992    1.0391    0.0685 C.2       1 <0>        -0.0684
      3 N1        -10.7291    1.9124    0.0769 N.pl3     1 <0>        -0.1220
      4 N2        -10.2525    3.2198    0.0684 N.2       1 <0>        -0.2638
      5 C3         -8.9033    3.2454    0.0532 C.2       1 <0>         0.1585
      6 O1         -8.1833    4.2215    0.0427 O.3       1 <0>        -0.1298
      7 C4         -8.4830    1.7880    0.0519 C.2       1 <0>        -0.2618
      8 H1         -8.7441    5.0494    0.0470 H         1 <0>         0.2561
      9 C5         -7.3068    0.8095    0.0410 C.3       1 <0>        -0.0719
     10 C6         -6.0120    1.5804    0.0391 C.2       1 <0>         0.3081
     11 O2         -6.0283    2.7933    0.0458 O.2       1 <0>        -0.2982
     12 N3         -4.8359    0.9223    0.0299 N.am      1 <0>        -0.3369
     13 N4         -3.6321    1.6391    0.0282 N.2       1 <0>         0.0203
     14 C7         -2.4990    1.0051    0.0193 C.2       1 <0>        -0.1309
     15 C8         -1.2333    1.7587    0.0175 C.ar      1 <0>        -0.0099
     16 C9         -0.0126    1.0758    0.0080 C.ar      1 <0>        -0.1304
     17 C10         1.1609    1.7748    0.0005 C.ar      1 <0>        -0.0702
     18 C11         1.1420    3.1730    0.0082 C.ar      1 <0>        -0.1072
     19 C12        -0.0782    3.8559    0.0236 C.ar      1 <0>        -0.0828
     20 C13        -1.2519    3.1573    0.0315 C.ar      1 <0>        -0.1099
     21 C14         2.4096    3.9278   -0.0003 C.2       1 <0>         0.3481
     22 O3          3.4698    3.3346   -0.0141 O.2       1 <0>        -0.3620
     23 O4          2.3915    5.2752    0.0072 O.3       1 <0>        -0.2659
     24 C15         3.6762    5.9517   -0.0020 C.3       1 <0>        -0.0508
     25 H2        -10.8344    0.6535    1.8943 H         1 <0>         0.0955
     26 H3        -10.9258   -0.6607    0.6974 H         1 <0>         0.0798
     27 H4         -9.4206   -0.3894    1.6080 H         1 <0>         0.0950
     28 H5        -11.7019    1.6809    0.0885 H         1 <0>         0.2732
     29 H6         -7.3604    0.1870   -0.8521 H         1 <0>         0.1032
     30 H7         -7.3519    0.1772    0.9278 H         1 <0>         0.0973
     31 H8         -4.8228   -0.0476    0.0246 H         1 <0>         0.2055
     32 H9         -2.4845   -0.0748    0.0134 H         1 <0>         0.1172
     33 H10         0.0021   -0.0041    0.0020 H         1 <0>         0.1359
     34 H11         2.1034    1.2476   -0.0117 H         1 <0>         0.1565
     35 H12        -0.0925    4.9358    0.0296 H         1 <0>         0.1527
     36 H13        -2.1942    3.6848    0.0434 H         1 <0>         0.1656
     37 H14         3.5189    7.0303    0.0054 H         1 <0>         0.1035
     38 H15         4.2459    5.6616    0.8808 H         1 <0>         0.0826
     39 H16         4.2282    5.6712   -0.8990 H         1 <0>         0.0827
@<TRIPOS>BOND
     1    1    2 1
     2    1   25 1
     3    1   26 1
     4    1   27 1
     5    2    3 1
     6    2    7 2
     7    3    4 1
     8    3   28 1
     9    4    5 2
    10    5    7 1
    11    5    6 1
    12    6    8 1
    13    7    9 1
    14    9   10 1
    15    9   29 1
    16    9   30 1
    17   10   11 2
    18   10   12 am
    19   12   13 1
    20   12   31 1
    21   13   14 2
    22   14   15 1
    23   14   32 1
    24   15   20 ar
    25   15   16 ar
    26   16   17 ar
    27   16   33 1
    28   17   18 ar
    29   17   34 1
    30   18   19 ar
    31   18   21 1
    32   19   20 ar
    33   19   35 1
    34   20   36 1
    35   21   22 2
    36   21   23 1
    37   23   24 1
    38   24   37 1
    39   24   38 1
    40   24   39 1
@<TRIPOS>MOLECULE
ZINC03892123
   40    42     0     0     0
SMALL
USER_CHARGES

@<TRIPOS>ATOM
      1 C1          1.7504   -5.5952   -0.0464 C.3       1 <0>        -0.1708
      2 C2          0.9094   -4.3448   -0.0308 C.2       1 <0>         0.0760
      3 C3         -0.4886   -4.4450   -0.0180 C.2       1 <0>        -0.2569
      4 C4         -1.2349   -3.3119   -0.0039 C.2       1 <0>         0.1053
      5 N1         -0.6042   -2.1053   -0.0035 N.pl3     1 <0>        -0.1057
      6 C5          0.7630   -2.0422   -0.0162 C.2       1 <0>         0.1112
      7 N2          1.4900   -3.1675   -0.0296 N.2       1 <0>        -0.1506
      8 N3          1.1014   -0.7610   -0.0183 N.2       1 <0>        -0.2296
      9 C6          0.0021   -0.0041    0.0020 C.2       1 <0>        -0.0404
     10 N4         -1.0645   -0.7821    0.0080 N.2       1 <0>        -0.0735
     11 C7         -0.0180    1.4763    0.0102 C.2       1 <0>         0.4086
     12 O1         -1.0790    2.0698    0.0184 O.2       1 <0>        -0.2922
     13 N5          1.1399    2.1660    0.0028 N.am      1 <0>        -0.3133
     14 N6          1.1209    3.5669    0.0105 N.2       1 <0>        -0.0012
     15 C8          2.2362    4.2312    0.0034 C.2       1 <0>        -0.0528
     16 C9          3.5514    3.4955   -0.0131 C.3       1 <0>        -0.2199
     17 C10         2.2162    5.7051    0.0115 C.ar      1 <0>        -0.0487
     18 C11         3.4157    6.4223    0.0098 C.ar      1 <0>        -0.0989
     19 C12         3.3920    7.8001    0.0121 C.ar      1 <0>        -0.1606
     20 C13         2.1787    8.4760    0.0273 C.ar      1 <0>         0.0830
     21 C14         0.9841    7.7673    0.0349 C.ar      1 <0>        -0.1604
     22 C15         0.9979    6.3894    0.0268 C.ar      1 <0>        -0.0740
     23 O2          2.1602    9.8343    0.0343 O.3       1 <0>        -0.2924
     24 C16        -2.7399   -3.3879    0.0098 C.3       1 <0>        -0.1865
     25 H1          1.9633   -5.9027    0.9774 H         1 <0>         0.1062
     26 H2          1.2096   -6.3903   -0.5596 H         1 <0>         0.0923
     27 H3          2.6865   -5.3969   -0.5684 H         1 <0>         0.1127
     28 H4         -0.9665   -5.4136   -0.0189 H         1 <0>         0.1646
     29 H5          1.9864    1.6925   -0.0078 H         1 <0>         0.2343
     30 H6          3.8586    3.3237   -1.0447 H         1 <0>         0.1016
     31 H7          4.3078    4.0921    0.4968 H         1 <0>         0.0973
     32 H8          3.4389    2.5387    0.4967 H         1 <0>         0.0892
     33 H9          4.3596    5.8976    0.0025 H         1 <0>         0.1351
     34 H10         4.3184    8.3552    0.0062 H         1 <0>         0.1415
     35 H11         0.0430    8.2970    0.0467 H         1 <0>         0.1451
     36 H12         0.0685    5.8392    0.0320 H         1 <0>         0.1634
     37 H13         2.1632   10.2231    0.9197 H         1 <0>         0.2293
     38 H14        -3.1125   -3.4008   -1.0145 H         1 <0>         0.1113
     39 H15        -3.0532   -4.2978    0.5218 H         1 <0>         0.0989
     40 H16        -3.1428   -2.5201    0.5321 H         1 <0>         0.1214
@<TRIPOS>BOND
     1    1    2 1
     2    1   25 1
     3    1   26 1
     4    1   27 1
     5    2    7 2
     6    2    3 1
     7    3    4 2
     8    3   28 1
     9    4    5 1
    10    4   24 1
    11    5   10 1
    12    5    6 1
    13    6    7 1
    14    6    8 2
    15    8    9 1
    16    9   10 2
    17    9   11 1
    18   11   12 2
    19   11   13 am
    20   13   14 1
    21   13   29 1
    22   14   15 2
    23   15   16 1
    24   15   17 1
    25   16   30 1
    26   16   31 1
    27   16   32 1
    28   17   22 ar
    29   17   18 ar
    30   18   19 ar
    31   18   33 1
    32   19   20 ar
    33   19   34 1
    34   20   21 ar
    35   20   23 1
    36   21   22 ar
    37   21   35 1
    38   22   36 1
    39   23   37 1
    40   24   38 1
    41   24   39 1
    42   24   40 1
@<TRIPOS>MOLECULE
ZINC03892124
   41    43     0     0     0
SMALL
USER_CHARGES

@<TRIPOS>ATOM
      1 C1         -2.4573    3.6663   -1.1386 C.ar      1 <0>        -0.1357
      2 C2         -3.6493    2.9672   -1.0518 C.ar      1 <0>        -0.1057
      3 C3         -3.6608    1.6570   -0.6122 C.ar      1 <0>        -0.1531
      4 C4         -2.4764    1.0337   -0.2548 C.ar      1 <0>         0.0932
      5 C5         -1.2673    1.7373   -0.3415 C.ar      1 <0>        -0.1170
      6 C6         -1.2697    3.0627   -0.7823 C.ar      1 <0>        -0.1360
      7 C7         -0.0013    1.0843    0.0360 C.2       1 <0>        -0.1136
      8 N1          0.9977    1.7991    0.4562 N.2       1 <0>         0.0235
      9 N2          0.8109    3.1540    0.7598 N.am      1 <0>        -0.3472
     10 C8          1.8689    3.9247    1.0807 C.2       1 <0>         0.3562
     11 O1          2.9719    3.4259    1.1958 O.2       1 <0>        -0.3067
     12 C9          1.6885    5.3763    1.2929 C.ar      1 <0>        -0.1008
     13 C10         0.4092    5.9352    1.2618 C.ar      1 <0>        -0.1421
     14 C11         0.2432    7.2898    1.4650 C.ar      1 <0>        -0.1109
     15 C12         1.3411    8.0995    1.6898 C.ar      1 <0>        -0.1570
     16 C13         2.6188    7.5539    1.7175 C.ar      1 <0>         0.0806
     17 C14         2.7960    6.1934    1.5193 C.ar      1 <0>        -0.1007
     18 N3          3.7268    8.3781    1.9450 N.am      1 <0>        -0.2855
     19 C15         3.6428    9.8036    2.2841 C.3       1 <0>        -0.0242
     20 C16         5.0515   10.3758    2.0113 C.3       1 <0>        -0.1776
     21 C17         5.9387    9.1197    2.1723 C.3       1 <0>        -0.1974
     22 C18         5.0044    7.9645    1.8867 C.2       1 <0>         0.3101
     23 O2          5.3569    6.8309    1.6385 O.2       1 <0>        -0.3266
     24 O3         -2.4867   -0.2538    0.1773 O.3       1 <0>        -0.2886
     25 H1         -2.4582    4.6900   -1.4826 H         1 <0>         0.1360
     26 H2         -4.5754    3.4487   -1.3289 H         1 <0>         0.1359
     27 H3         -4.5946    1.1184   -0.5469 H         1 <0>         0.1440
     28 H4         -0.3426    3.6127   -0.8475 H         1 <0>         0.1556
     29 H5          0.0969    0.0115   -0.0410 H         1 <0>         0.1961
     30 H6         -0.0799    3.5373    0.7390 H         1 <0>         0.2271
     31 H7         -0.4506    5.3067    1.0823 H         1 <0>         0.1237
     32 H8         -0.7473    7.7197    1.4442 H         1 <0>         0.1332
     33 H9          1.2052    9.1597    1.8441 H         1 <0>         0.1321
     34 H10         3.7883    5.7675    1.5404 H         1 <0>         0.2094
     35 H11         2.9056   10.2989    1.6521 H         1 <0>         0.0954
     36 H12         3.3828    9.9265    3.3355 H         1 <0>         0.0927
     37 H13         5.1210   10.7754    0.9995 H         1 <0>         0.1021
     38 H14         5.3131   11.1359    2.7475 H         1 <0>         0.1021
     39 H15         6.7587    9.1372    1.4545 H         1 <0>         0.1237
     40 H16         6.3247    9.0531    3.1895 H         1 <0>         0.1202
     41 H17        -2.6691   -0.3501    1.1220 H         1 <0>         0.2338
@<TRIPOS>BOND
     1    1    6 ar
     2    1    2 ar
     3    1   25 1
     4    2    3 ar
     5    2   26 1
     6    3    4 ar
     7    3   27 1
     8    4    5 ar
     9    4   24 1
    10    5    6 ar
    11    5    7 1
    12    6   28 1
    13    7    8 2
    14    7   29 1
    15    8    9 1
    16    9   10 am
    17    9   30 1
    18   10   11 2
    19   10   12 1
    20   12   17 ar
    21   12   13 ar
    22   13   14 ar
    23   13   31 1
    24   14   15 ar
    25   14   32 1
    26   15   16 ar
    27   15   33 1
    28   16   17 ar
    29   16   18 1
    30   17   34 1
    31   18   22 am
    32   18   19 1
    33   19   20 1
    34   19   35 1
    35   19   36 1
    36   20   21 1
    37   20   37 1
    38   20   38 1
    39   21   22 1
    40   21   39 1
    41   21   40 1
    42   22   23 2
    43   24   41 1
@<TRIPOS>MOLECULE
ZINC03892125
   41    43     0     0     0
SMALL
USER_CHARGES

@<TRIPOS>ATOM
      1 C1          7.7477   -3.4904   -2.4233 C.ar      1 <0>        -0.1336
      2 C2          8.4256   -4.6842   -2.6027 C.ar      1 <0>        -0.1043
      3 C3          9.7911   -4.7500   -2.3996 C.ar      1 <0>        -0.1533
      4 C4         10.4914   -3.6188   -2.0136 C.ar      1 <0>         0.0926
      5 C5          9.8094   -2.4081   -1.8307 C.ar      1 <0>        -0.1194
      6 C6          8.4284   -2.3560   -2.0341 C.ar      1 <0>        -0.1352
      7 C7         10.5441   -1.1984   -1.4203 C.2       1 <0>        -0.1114
      8 N1          9.9311   -0.2552   -0.7723 N.2       1 <0>         0.0197
      9 N2          8.6460   -0.4777   -0.2607 N.am      1 <0>        -0.3450
     10 C8          7.9583    0.5374    0.2989 C.2       1 <0>         0.3618
     11 O1          8.4155    1.6643    0.2811 O.2       1 <0>        -0.3274
     12 C9          6.6509    0.2815    0.9332 C.ar      1 <0>        -0.1614
     13 C10         5.8847    1.3474    1.4132 C.ar      1 <0>        -0.0372
     14 C11         4.6651    1.1052    2.0041 C.ar      1 <0>        -0.1901
     15 C12         4.1950   -0.1989    2.1236 C.ar      1 <0>         0.1106
     16 C13         4.9574   -1.2627    1.6515 C.ar      1 <0>        -0.1753
     17 C14         6.1755   -1.0272    1.0549 C.ar      1 <0>        -0.0817
     18 N3          2.9593   -0.4407    2.7230 N.am      1 <0>        -0.2813
     19 C15         2.1280    0.5921    3.3524 C.3       1 <0>        -0.0261
     20 C16         0.7188   -0.0294    3.4723 C.3       1 <0>        -0.1776
     21 C17         1.0427   -1.5411    3.5040 C.3       1 <0>        -0.1983
     22 C18         2.3766   -1.6496    2.7986 C.2       1 <0>         0.3140
     23 O2          2.8515   -2.6779    2.3651 O.2       1 <0>        -0.3405
     24 O3         11.8332   -3.6826   -1.8137 O.3       1 <0>        -0.2892
     25 H1          6.6806   -3.4486   -2.5840 H         1 <0>         0.1383
     26 H2          7.8842   -5.5691   -2.9029 H         1 <0>         0.1369
     27 H3         10.3129   -5.6849   -2.5415 H         1 <0>         0.1439
     28 H4          7.8952   -1.4278   -1.8905 H         1 <0>         0.1549
     29 H5         11.5925   -1.0965   -1.6586 H         1 <0>         0.1954
     30 H6          8.2511   -1.3624   -0.3092 H         1 <0>         0.2278
     31 H7          6.2489    2.3599    1.3205 H         1 <0>         0.1600
     32 H8          4.0724    1.9283    2.3749 H         1 <0>         0.1362
     33 H9          4.5915   -2.2740    1.7499 H         1 <0>         0.1867
     34 H10         6.7648   -1.8531    0.6846 H         1 <0>         0.1294
     35 H11         2.0951    1.4835    2.7259 H         1 <0>         0.0998
     36 H12         2.5167    0.8389    4.3404 H         1 <0>         0.0955
     37 H13         0.1073    0.2203    2.6053 H         1 <0>         0.1031
     38 H14         0.2306    0.2844    4.3949 H         1 <0>         0.1038
     39 H15         1.1255   -1.8920    4.5327 H         1 <0>         0.1210
     40 H16         0.2803   -2.1059    2.9675 H         1 <0>         0.1234
     41 H17        12.0853   -3.9800   -0.9288 H         1 <0>         0.2334
@<TRIPOS>BOND
     1    1    6 ar
     2    1    2 ar
     3    1   25 1
     4    2    3 ar
     5    2   26 1
     6    3    4 ar
     7    3   27 1
     8    4    5 ar
     9    4   24 1
    10    5    6 ar
    11    5    7 1
    12    6   28 1
    13    7    8 2
    14    7   29 1
    15    8    9 1
    16    9   10 am
    17    9   30 1
    18   10   11 2
    19   10   12 1
    20   12   17 ar
    21   12   13 ar
    22   13   14 ar
    23   13   31 1
    24   14   15 ar
    25   14   32 1
    26   15   16 ar
    27   15   18 1
    28   16   17 ar
    29   16   33 1
    30   17   34 1
    31   18   22 am
    32   18   19 1
    33   19   20 1
    34   19   35 1
    35   19   36 1
    36   20   21 1
    37   20   37 1
    38   20   38 1
    39   21   22 1
    40   21   39 1
    41   21   40 1
    42   22   23 2
    43   24   41 1
@<TRIPOS>MOLECULE
ZINC03892799
   37    39     0     0     0
SMALL
USER_CHARGES

@<TRIPOS>ATOM
      1 C1         -7.0120   -3.4984    0.2801 C.3       1 <0>        -0.1700
      2 C2         -5.8109   -2.5919    0.3597 C.ar      1 <0>        -0.1069
      3 C3         -5.9815   -1.2400    0.5973 C.ar      1 <0>        -0.0959
      4 C4         -4.8834   -0.4062    0.6709 C.ar      1 <0>        -0.1795
      5 C5         -3.6051   -0.9271    0.5059 C.ar      1 <0>         0.0913
      6 C6         -3.4380   -2.2855    0.2621 C.ar      1 <0>        -0.1544
      7 C7         -4.5406   -3.1138    0.1955 C.ar      1 <0>        -0.0915
      8 N1         -2.4936   -0.0881    0.5791 N.pl3     1 <0>        -0.2761
      9 N2         -1.2133   -0.5980    0.3271 N.2       1 <0>         0.0955
     10 C8         -0.1615    0.1587    0.5046 C.2       1 <0>        -0.2724
     11 C9          1.2674   -0.1619    0.3142 C.2       1 <0>         0.1604
     12 N3          1.6673   -1.3482   -0.0899 N.2       1 <0>        -0.1735
     13 C10         0.7485   -2.2890   -0.4618 C.ar      1 <0>         0.0007
     14 C11         0.6759   -3.5065    0.2208 C.ar      1 <0>        -0.1007
     15 C12        -0.2562   -4.4501   -0.1547 C.ar      1 <0>        -0.1483
     16 C13        -1.1147   -4.1971   -1.2163 C.ar      1 <0>         0.0589
     17 C14        -1.0430   -2.9913   -1.9011 C.ar      1 <0>        -0.1400
     18 C15        -0.1179   -2.0391   -1.5298 C.ar      1 <0>        -0.1134
     19 O1         -2.0281   -5.1333   -1.5868 O.3       1 <0>        -0.2943
     20 N4          2.1451    0.8412    0.5816 N.am      1 <0>        -0.3103
     21 C16         1.7083    2.0469    0.9946 C.2       1 <0>         0.2479
     22 O2          2.3677    3.0315    1.2695 O.2       1 <0>        -0.2531
     23 S1         -0.0652    1.8591    1.0433 S.3       1 <0>         0.1179
     24 H1         -7.3629   -3.5470   -0.7507 H         1 <0>         0.0843
     25 H2         -6.7362   -4.4975    0.6175 H         1 <0>         0.0819
     26 H3         -7.8058   -3.1065    0.9161 H         1 <0>         0.0786
     27 H4         -6.9749   -0.8361    0.7250 H         1 <0>         0.1329
     28 H5         -5.0175    0.6493    0.8561 H         1 <0>         0.1290
     29 H6         -2.4467   -2.6930    0.1293 H         1 <0>         0.1601
     30 H7         -4.4113   -4.1700    0.0105 H         1 <0>         0.1442
     31 H8         -2.6070    0.8485    0.8044 H         1 <0>         0.2354
     32 H9          1.3465   -3.7061    1.0436 H         1 <0>         0.1448
     33 H10        -0.3158   -5.3895    0.3747 H         1 <0>         0.1432
     34 H11        -1.7129   -2.7993   -2.7261 H         1 <0>         0.1442
     35 H12        -0.0624   -1.1018   -2.0634 H         1 <0>         0.1377
     36 H13        -1.7051   -5.7561   -2.2523 H         1 <0>         0.2279
     37 H14         3.0967    0.6870    0.4741 H         1 <0>         0.2636
@<TRIPOS>BOND
     1    1    2 1
     2    1   24 1
     3    1   25 1
     4    1   26 1
     5    2    7 ar
     6    2    3 ar
     7    3    4 ar
     8    3   27 1
     9    4    5 ar
    10    4   28 1
    11    5    6 ar
    12    5    8 1
    13    6    7 ar
    14    6   29 1
    15    7   30 1
    16    8    9 1
    17    8   31 1
    18    9   10 2
    19   10   23 1
    20   10   11 1
    21   11   12 2
    22   11   20 1
    23   12   13 1
    24   13   18 ar
    25   13   14 ar
    26   14   15 ar
    27   14   32 1
    28   15   16 ar
    29   15   33 1
    30   16   17 ar
    31   16   19 1
    32   17   18 ar
    33   17   34 1
    34   18   35 1
    35   19   36 1
    36   20   21 am
    37   20   37 1
    38   21   22 2
    39   21   23 1
@<TRIPOS>MOLECULE
ZINC03892820
   42    44     0     0     0
SMALL
USER_CHARGES

@<TRIPOS>ATOM
      1 C1         -2.4016    6.2713    6.0260 C.3       1 <0>        -0.1757
      2 C2         -1.8604    6.0602    4.6355 C.ar      1 <0>        -0.0733
      3 C3         -0.5932    6.5399    4.3103 C.ar      1 <0>        -0.1102
      4 C4         -0.0754    6.3659    3.0640 C.ar      1 <0>        -0.1050
      5 C5         -0.8267    5.6917    2.0838 C.ar      1 <0>         0.0230
      6 C6         -2.1145    5.2053    2.4192 C.ar      1 <0>        -0.0505
      7 C7         -2.6163    5.4022    3.7122 C.ar      1 <0>        -0.1159
      8 C8         -2.8700    4.5260    1.4296 C.ar      1 <0>        -0.0764
      9 C9         -2.3029    4.3792    0.1696 C.ar      1 <0>        -0.1634
     10 C10        -1.0283    4.8840   -0.0732 C.ar      1 <0>         0.0049
     11 N1         -0.3431    5.5084    0.8525 N.ar      1 <0>        -0.1398
     12 C11        -0.4220    4.7128   -1.4422 C.3       1 <0>        -0.1678
     13 C12        -4.2187    3.9990    1.7263 C.2       1 <0>         0.3640
     14 O1         -4.6526    4.0433    2.8615 O.2       1 <0>        -0.3217
     15 N2         -4.9676    3.4695    0.7388 N.am      1 <0>        -0.3418
     16 N3         -6.2842    3.0665    0.9973 N.2       1 <0>         0.0184
     17 C13        -6.9675    2.4522    0.0793 C.2       1 <0>        -0.1040
     18 C14        -6.2990    1.9834   -1.1464 C.ar      1 <0>        -0.1329
     19 C15        -4.9393    1.6610   -1.1246 C.ar      1 <0>        -0.1221
     20 C16        -4.3180    1.2225   -2.2731 C.ar      1 <0>        -0.1627
     21 C17        -5.0388    1.0992   -3.4553 C.ar      1 <0>         0.0988
     22 C18        -6.3889    1.4167   -3.4874 C.ar      1 <0>        -0.1826
     23 C19        -7.0256    1.8533   -2.3389 C.ar      1 <0>         0.1104
     24 O2         -8.3484    2.1591   -2.3676 O.3       1 <0>        -0.2875
     25 O3         -4.4189    0.6657   -4.5835 O.3       1 <0>        -0.2901
     26 H1         -2.1177    5.4298    6.6580 H         1 <0>         0.0890
     27 H2         -1.9901    7.1918    6.4401 H         1 <0>         0.0796
     28 H3         -3.4884    6.3450    5.9857 H         1 <0>         0.0901
     29 H4         -0.0128    7.0580    5.0593 H         1 <0>         0.1336
     30 H5          0.9084    6.7439    2.8282 H         1 <0>         0.1485
     31 H6         -3.5968    5.0342    3.9759 H         1 <0>         0.1915
     32 H7         -2.8453    3.8725   -0.6148 H         1 <0>         0.1302
     33 H8          0.1387    3.7787   -1.4769 H         1 <0>         0.0940
     34 H9          0.2484    5.5468   -1.6496 H         1 <0>         0.1043
     35 H10        -1.2144    4.6889   -2.1902 H         1 <0>         0.0823
     36 H11        -4.5949    3.3674   -0.1509 H         1 <0>         0.2287
     37 H12        -8.0259    2.2851    0.2147 H         1 <0>         0.1977
     38 H13        -4.3761    1.7559   -0.2080 H         1 <0>         0.1566
     39 H14        -3.2673    0.9733   -2.2550 H         1 <0>         0.1474
     40 H15        -6.9445    1.3189   -4.4084 H         1 <0>         0.1558
     41 H16        -8.5373    3.0608   -2.6613 H         1 <0>         0.2379
     42 H17        -4.4409   -0.2940   -4.7003 H         1 <0>         0.2369
@<TRIPOS>BOND
     1    1    2 1
     2    1   26 1
     3    1   27 1
     4    1   28 1
     5    2    7 ar
     6    2    3 ar
     7    3    4 ar
     8    3   29 1
     9    4    5 ar
    10    4   30 1
    11    5   11 ar
    12    5    6 ar
    13    6    7 ar
    14    6    8 ar
    15    7   31 1
    16    8    9 ar
    17    8   13 1
    18    9   10 ar
    19    9   32 1
    20   10   11 ar
    21   10   12 1
    22   12   33 1
    23   12   34 1
    24   12   35 1
    25   13   14 2
    26   13   15 am
    27   15   16 1
    28   15   36 1
    29   16   17 2
    30   17   18 1
    31   17   37 1
    32   18   23 ar
    33   18   19 ar
    34   19   20 ar
    35   19   38 1
    36   20   21 ar
    37   20   39 1
    38   21   22 ar
    39   21   25 1
    40   22   23 ar
    41   22   40 1
    42   23   24 1
    43   24   41 1
    44   25   42 1
@<TRIPOS>MOLECULE
ZINC03892832
   43    45     0     0     0
SMALL
USER_CHARGES

@<TRIPOS>ATOM
      1 C1          1.0303    8.7983    5.7011 C.3       1 <0>        -0.1659
      2 C2          0.9006    7.3488    5.3097 C.ar      1 <0>        -0.0066
      3 C3         -0.1997    6.6235    5.7584 C.ar      1 <0>        -0.1517
      4 C4         -0.3302    5.2863    5.4034 C.ar      1 <0>        -0.0851
      5 C5          0.6818    4.7171    4.5874 C.ar      1 <0>        -0.0195
      6 C6          0.6239    3.3778    4.1860 C.ar      1 <0>        -0.1583
      7 C7          1.6261    2.8630    3.3933 C.ar      1 <0>         0.0947
      8 C8          2.6996    3.6659    2.9932 C.ar      1 <0>        -0.1916
      9 C9          2.7748    4.9705    3.3665 C.ar      1 <0>        -0.0680
     10 C10         1.7678    5.5293    4.1760 C.ar      1 <0>        -0.0061
     11 N1          1.8263    6.8080    4.5567 N.ar      1 <0>        -0.1322
     12 O1          1.5744    1.5634    3.0015 O.3       1 <0>        -0.2012
     13 C11         2.6440    1.0904    2.1804 C.3       1 <0>        -0.0650
     14 C12        -1.4834    4.4841    5.8606 C.2       1 <0>         0.3630
     15 O2         -1.6340    3.3483    5.4528 O.2       1 <0>        -0.3159
     16 N2         -2.3686    5.0109    6.7297 N.am      1 <0>        -0.3428
     17 N3         -3.4021    4.2174    7.2444 N.2       1 <0>         0.0205
     18 C13        -4.3212    4.7517    7.9905 C.2       1 <0>        -0.1057
     19 C14        -4.4075    6.2165    8.1170 C.ar      1 <0>        -0.1319
     20 C15        -3.9523    7.0381    7.0822 C.ar      1 <0>        -0.1223
     21 C16        -4.0348    8.4077    7.2045 C.ar      1 <0>        -0.1629
     22 C17        -4.5700    8.9765    8.3545 C.ar      1 <0>         0.0982
     23 C18        -5.0249    8.1697    9.3872 C.ar      1 <0>        -0.1826
     24 C19        -4.9519    6.7924    9.2741 C.ar      1 <0>         0.1100
     25 O3         -5.4017    6.0013   10.2820 O.3       1 <0>        -0.2874
     26 O4         -4.6482   10.3280    8.4672 O.3       1 <0>        -0.2903
     27 H1          1.5851    8.8738    6.6363 H         1 <0>         0.0948
     28 H2          1.5619    9.3398    4.9185 H         1 <0>         0.1028
     29 H3          0.0379    9.2297    5.8315 H         1 <0>         0.0805
     30 H4         -0.9470    7.0970    6.3778 H         1 <0>         0.1308
     31 H5         -0.2003    2.7522    4.4957 H         1 <0>         0.2046
     32 H6          3.4783    3.2436    2.3755 H         1 <0>         0.1386
     33 H7          3.6085    5.5772    3.0452 H         1 <0>         0.1497
     34 H8          2.4802    0.0400    1.9399 H         1 <0>         0.1111
     35 H9          3.5876    1.1977    2.7154 H         1 <0>         0.0670
     36 H10         2.6802    1.6726    1.2597 H         1 <0>         0.0672
     37 H11        -2.2902    5.9396    6.9987 H         1 <0>         0.2279
     38 H12        -5.0222    4.1219    8.5181 H         1 <0>         0.1976
     39 H13        -3.5360    6.5996    6.1873 H         1 <0>         0.1568
     40 H14        -3.6828    9.0417    6.4042 H         1 <0>         0.1470
     41 H15        -5.4402    8.6167   10.2784 H         1 <0>         0.1556
     42 H16        -4.7526    5.8499   10.9827 H         1 <0>         0.2378
     43 H17        -5.4746   10.7033    8.1337 H         1 <0>         0.2366
@<TRIPOS>BOND
     1    1    2 1
     2    1   27 1
     3    1   28 1
     4    1   29 1
     5    2   11 ar
     6    2    3 ar
     7    3    4 ar
     8    3   30 1
     9    4    5 ar
    10    4   14 1
    11    5   10 ar
    12    5    6 ar
    13    6    7 ar
    14    6   31 1
    15    7    8 ar
    16    7   12 1
    17    8    9 ar
    18    8   32 1
    19    9   10 ar
    20    9   33 1
    21   10   11 ar
    22   12   13 1
    23   13   34 1
    24   13   35 1
    25   13   36 1
    26   14   15 2
    27   14   16 am
    28   16   17 1
    29   16   37 1
    30   17   18 2
    31   18   19 1
    32   18   38 1
    33   19   24 ar
    34   19   20 ar
    35   20   21 ar
    36   20   39 1
    37   21   22 ar
    38   21   40 1
    39   22   23 ar
    40   22   26 1
    41   23   24 ar
    42   23   41 1
    43   24   25 1
    44   25   42 1
    45   26   43 1
@<TRIPOS>MOLECULE
ZINC03893108
   41    44     0     0     0
SMALL
USER_CHARGES

@<TRIPOS>ATOM
      1 C1          2.0382   -1.0795    3.9938 C.3       1 <0>        -0.1746
      2 C2          0.5539   -1.3161    3.8836 C.ar      1 <0>        -0.0414
      3 C3         -0.1254   -1.9351    4.9171 C.ar      1 <0>        -0.1452
      4 C4         -1.4872   -2.1538    4.8203 C.ar      1 <0>        -0.0960
      5 C5         -2.1737   -1.7548    3.6901 C.ar      1 <0>        -0.1070
      6 C6         -1.4946   -1.1329    2.6503 C.ar      1 <0>         0.0885
      7 C7         -0.1254   -0.9191    2.7488 C.ar      1 <0>        -0.1794
      8 N1         -2.1856   -0.7286    1.5058 N.pl3     1 <0>        -0.8080
      9 S1         -1.4210   -0.7198    0.0369 S.o2      1 <0>         2.7651
     10 O1         -2.3860   -0.3064   -0.9208 O.2       1 <0>        -0.9089
     11 O2         -0.7257   -1.9548   -0.0665 O.2       1 <0>        -0.9003
     12 C8         -0.1954    0.5448    0.0950 C.ar      1 <0>        -0.7754
     13 C9          1.1330    0.2376   -0.0218 C.ar      1 <0>         0.0230
     14 C10         2.1456    1.1954    0.0171 C.ar      1 <0>        -0.1818
     15 C11         1.8275    2.5310    0.1807 C.ar      1 <0>         0.1266
     16 C12         0.4735    2.8279    0.2973 C.ar      1 <0>        -0.1175
     17 C13        -0.5599    1.8910    0.2620 C.ar      1 <0>         0.0665
     18 C14        -1.8724    2.3770    0.3906 C.ar      1 <0>        -0.0987
     19 C15        -2.0677    3.7229    0.5504 C.ar      1 <0>        -0.1164
     20 C16        -1.0233    4.6463    0.5835 C.ar      1 <0>        -0.0320
     21 C17         0.2833    4.2088    0.4562 C.ar      1 <0>        -0.1328
     22 C18         1.6413    4.7651    0.4311 C.2       1 <0>         0.3664
     23 O3          1.9346    5.9412    0.5385 O.2       1 <0>        -0.3053
     24 N2          2.5137    3.7358    0.2669 N.am      1 <0>        -0.3072
     25 C19        -3.6578   -1.9945    3.5850 C.3       1 <0>        -0.1667
     26 H1          2.5734   -1.9726    3.6715 H         1 <0>         0.0903
     27 H2          2.3200   -0.2385    3.3601 H         1 <0>         0.0800
     28 H3          2.2946   -0.8560    5.0293 H         1 <0>         0.0840
     29 H4          0.4091   -2.2487    5.8016 H         1 <0>         0.1326
     30 H5         -2.0147   -2.6374    5.6291 H         1 <0>         0.1339
     31 H6          0.4065   -0.4398    1.9403 H         1 <0>         0.1402
     32 H7         -3.1133   -0.4531    1.5713 H         1 <0>         0.2517
     33 H8          1.4109   -0.7980   -0.1510 H         1 <0>         0.1615
     34 H9          3.1782    0.8940   -0.0801 H         1 <0>         0.1427
     35 H10        -2.7131    1.6996    0.3665 H         1 <0>         0.1478
     36 H11        -3.0794    4.0870    0.6522 H         1 <0>         0.1405
     37 H12        -1.2332    5.6983    0.7082 H         1 <0>         0.1495
     38 H13         3.4780    3.8291    0.2175 H         1 <0>         0.2570
     39 H14        -3.8373   -2.9679    3.1285 H         1 <0>         0.0927
     40 H15        -4.1007   -1.9729    4.5807 H         1 <0>         0.0836
     41 H16        -4.1089   -1.2159    2.9698 H         1 <0>         0.0700
@<TRIPOS>BOND
     1    1    2 1
     2    1   26 1
     3    1   27 1
     4    1   28 1
     5    2    7 ar
     6    2    3 ar
     7    3    4 ar
     8    3   29 1
     9    4    5 ar
    10    4   30 1
    11    5    6 ar
    12    5   25 1
    13    6    7 ar
    14    6    8 1
    15    7   31 1
    16    8    9 1
    17    8   32 1
    18    9   10 2
    19    9   11 2
    20    9   12 1
    21   12   17 ar
    22   12   13 ar
    23   13   14 ar
    24   13   33 1
    25   14   15 ar
    26   14   34 1
    27   15   24 1
    28   15   16 ar
    29   16   21 ar
    30   16   17 ar
    31   17   18 ar
    32   18   19 ar
    33   18   35 1
    34   19   20 ar
    35   19   36 1
    36   20   21 ar
    37   20   37 1
    38   21   22 1
    39   22   23 2
    40   22   24 am
    41   24   38 1
    42   25   39 1
    43   25   40 1
    44   25   41 1
@<TRIPOS>MOLECULE
ZINC03896584
   42    44     0     0     0
SMALL
USER_CHARGES

@<TRIPOS>ATOM
      1 C1          2.3746   13.8297    3.5796 C.3       1 <0>        -0.2117
      2 C2          2.3656   12.3079    3.7381 C.3       1 <0>        -0.0153
      3 O1          1.6236   11.7218    2.6666 O.3       1 <0>        -0.2138
      4 C3          1.5179   10.3663    2.6580 C.ar      1 <0>         0.0857
      5 C4          0.8115    9.7323    1.6464 C.ar      1 <0>        -0.1444
      6 C5          0.7033    8.3557    1.6373 C.ar      1 <0>        -0.0881
      7 C6          1.3023    7.6060    2.6408 C.ar      1 <0>         0.0192
      8 C7          2.0052    8.2414    3.6557 C.ar      1 <0>        -0.1210
      9 C8          2.1170    9.6178    3.6607 C.ar      1 <0>        -0.2076
     10 N1          1.1926    6.2092    2.6325 N.am      1 <0>        -0.3237
     11 C9          1.1816    5.5411    1.4620 C.2       1 <0>         0.3105
     12 O2          1.1821    6.1527    0.4146 O.2       1 <0>        -0.3595
     13 C10         1.1687    4.0342    1.4547 C.3       1 <0>        -0.2098
     14 C11         1.1579    3.5313    0.0098 C.3       1 <0>         0.0114
     15 N2          1.1454    2.0663    0.0027 N.am      1 <0>        -0.2990
     16 C12        -0.0319    1.4010    0.0047 C.2       1 <0>         0.3918
     17 O3         -1.0863    2.0107    0.0078 O.2       1 <0>        -0.3406
     18 C13        -0.0209    0.0024   -0.0027 C.2       1 <0>        -0.4368
     19 C14         1.1761   -0.7189   -0.0120 C.2       1 <0>         0.0757
     20 C15         1.0244   -2.1026   -0.0186 C.2       1 <0>        -0.2230
     21 C16        -0.2144   -2.6468   -0.0156 C.2       1 <0>        -0.3077
     22 S1         -1.2612   -1.2641   -0.0035 S.3       1 <0>         0.5358
     23 N3          2.3547    0.0452   -0.0140 N.am      1 <0>        -0.2912
     24 H1          3.2422   -0.4155   -0.0206 H         1 <0>         0.2705
     25 C17         2.3039    1.3852   -0.0071 C.2       1 <0>         0.4055
     26 O4          3.3477    2.0090   -0.0091 O.2       1 <0>        -0.3816
     27 H2          2.8390   14.0933    2.6293 H         1 <0>         0.0890
     28 H3          1.3508   14.2031    3.5997 H         1 <0>         0.0880
     29 H4          2.9406   14.2767    4.3969 H         1 <0>         0.0848
     30 H5          1.9013   12.0444    4.6883 H         1 <0>         0.0721
     31 H6          3.3894   11.9345    3.7180 H         1 <0>         0.0738
     32 H7          0.3456   10.3156    0.8659 H         1 <0>         0.1477
     33 H8          0.1533    7.8623    0.8497 H         1 <0>         0.1699
     34 H9          2.4679    7.6591    4.4388 H         1 <0>         0.1284
     35 H10         2.6675   10.1119    4.4476 H         1 <0>         0.1354
     36 H11         1.1246    5.7231    3.4691 H         1 <0>         0.2307
     37 H12         0.2780    3.6759    1.9708 H         1 <0>         0.1130
     38 H13         2.0579    3.6608    1.9627 H         1 <0>         0.1150
     39 H14         2.0486    3.8895   -0.5063 H         1 <0>         0.1374
     40 H15         0.2688    3.9047   -0.4982 H         1 <0>         0.1356
     41 H16         1.8952   -2.7415   -0.0256 H         1 <0>         0.1499
     42 H17        -0.4863   -3.6920   -0.0203 H         1 <0>         0.1981
@<TRIPOS>BOND
     1    1    2 1
     2    1   27 1
     3    1   28 1
     4    1   29 1
     5    2    3 1
     6    2   30 1
     7    2   31 1
     8    3    4 1
     9    4    9 ar
    10    4    5 ar
    11    5    6 ar
    12    5   32 1
    13    6    7 ar
    14    6   33 1
    15    7    8 ar
    16    7   10 1
    17    8    9 ar
    18    8   34 1
    19    9   35 1
    20   10   11 am
    21   10   36 1
    22   11   12 2
    23   11   13 1
    24   13   14 1
    25   13   37 1
    26   13   38 1
    27   14   15 1
    28   14   39 1
    29   14   40 1
    30   15   25 am
    31   15   16 am
    32   16   17 2
    33   16   18 1
    34   18   22 1
    35   18   19 2
    36   19   20 1
    37   19   23 1
    38   20   21 2
    39   20   41 1
    40   21   22 1
    41   21   42 1
    42   23   24 1
    43   23   25 am
    44   25   26 2
@<TRIPOS>MOLECULE
ZINC03899739
   39    41     0     0     0
SMALL
USER_CHARGES

@<TRIPOS>ATOM
      1 C1         -4.8055    1.2499   -0.1201 C.3       1 <0>        -0.0617
      2 O1         -3.6222    2.0510   -0.1111 O.3       1 <0>        -0.2102
      3 C2         -2.4318    1.3939   -0.1066 C.ar      1 <0>         0.0818
      4 C3         -2.4097    0.0027   -0.1107 C.ar      1 <0>        -0.1967
      5 C4         -1.2088   -0.6759   -0.1057 C.ar      1 <0>        -0.0896
      6 C5         -0.0155    0.0300   -0.0965 C.ar      1 <0>        -0.0736
      7 C6         -0.0291    1.4343   -0.0923 C.ar      1 <0>        -0.0022
      8 C7         -1.2515    2.1112   -0.0923 C.ar      1 <0>        -0.1158
      9 N1          1.2652    1.8475   -0.0834 N.2       1 <0>        -0.2016
     10 C8          2.0605    0.8058   -0.0819 C.2       1 <0>        -0.1172
     11 N2          1.3208   -0.3426   -0.0898 N.pl3     1 <0>        -0.2046
     12 H1          1.6762   -1.2773   -0.0906 H         1 <0>         0.2604
     13 S1          3.8211    0.8761   -0.0704 S.3       1 <0>         0.3052
     14 C9          4.0640    2.6697   -0.0640 C.3       1 <0>        -0.3000
     15 C10         5.5394    2.9767   -0.0537 C.2       1 <0>         0.3227
     16 O2          6.3471    2.0720   -0.0510 O.2       1 <0>        -0.3492
     17 N3          5.9613    4.2567   -0.0475 N.am      1 <0>        -0.3173
     18 C11         7.3271    4.5427    0.0555 C.ar      1 <0>         0.1301
     19 C12         8.2600    3.7097   -0.5485 C.ar      1 <0>        -0.1404
     20 C13         9.6070    3.9976   -0.4495 C.ar      1 <0>        -0.0681
     21 C14        10.0279    5.1083    0.2590 C.ar      1 <0>        -0.1529
     22 C15         9.1021    5.9363    0.8662 C.ar      1 <0>        -0.0541
     23 C16         7.7530    5.6568    0.7665 C.ar      1 <0>        -0.1488
     24 N4          6.7626    6.5435    1.4172 N.pl3     1 <0>         0.5554
     25 O3          7.1280    7.5732    1.9555 O.2       1 <0>        -0.3443
     26 O4          5.5821    6.2435    1.4144 O.3       1 <0>        -0.3800
     27 H2         -4.8134    0.6234   -1.0120 H         1 <0>         0.0663
     28 H3         -4.8232    0.6180    0.7679 H         1 <0>         0.0667
     29 H4         -5.6825    1.8972   -0.1229 H         1 <0>         0.1087
     30 H5         -3.3381   -0.5490   -0.1182 H         1 <0>         0.1391
     31 H6         -1.1980   -1.7558   -0.1093 H         1 <0>         0.1286
     32 H7         -1.2734    3.1910   -0.0887 H         1 <0>         0.1566
     33 H8          3.6093    3.1011   -0.9557 H         1 <0>         0.1430
     34 H9          3.5979    3.0963    0.8242 H         1 <0>         0.1529
     35 H10         5.3181    4.9797   -0.1143 H         1 <0>         0.2673
     36 H11         7.9321    2.8399   -1.0985 H         1 <0>         0.1817
     37 H12        10.3326    3.3525   -0.9224 H         1 <0>         0.1471
     38 H13        11.0821    5.3290    0.3384 H         1 <0>         0.1481
     39 H14         9.4340    6.8025    1.4193 H         1 <0>         0.1667
@<TRIPOS>BOND
     1    1    2 1
     2    1   27 1
     3    1   28 1
     4    1   29 1
     5    2    3 1
     6    3    8 ar
     7    3    4 ar
     8    4    5 ar
     9    4   30 1
    10    5    6 ar
    11    5   31 1
    12    6   11 1
    13    6    7 ar
    14    7    8 ar
    15    7    9 1
    16    8   32 1
    17    9   10 2
    18   10   11 1
    19   10   13 1
    20   11   12 1
    21   13   14 1
    22   14   15 1
    23   14   33 1
    24   14   34 1
    25   15   16 2
    26   15   17 am
    27   17   18 1
    28   17   35 1
    29   18   23 ar
    30   18   19 ar
    31   19   20 ar
    32   19   36 1
    33   20   21 ar
    34   20   37 1
    35   21   22 ar
    36   21   38 1
    37   22   23 ar
    38   22   39 1
    39   23   24 1
    40   24   25 2
    41   24   26 1
@<TRIPOS>MOLECULE
ZINC03899739
   40    42     0     0     0
SMALL
USER_CHARGES

@<TRIPOS>ATOM
      1 C1         -4.8055    1.2499   -0.1201 C.3       1 <0>        -0.0720
      2 O1         -3.6222    2.0510   -0.1111 O.3       1 <0>        -0.1857
      3 C2         -2.4318    1.3939   -0.1066 C.ar      1 <0>         0.1487
      4 C3         -2.4097    0.0027   -0.1107 C.ar      1 <0>        -0.1669
      5 C4         -1.2088   -0.6759   -0.1057 C.ar      1 <0>        -0.0569
      6 C5         -0.0155    0.0300   -0.0965 C.ar      1 <0>        -0.0538
      7 C6         -0.0291    1.4343   -0.0923 C.ar      1 <0>         0.0011
      8 C7         -1.2515    2.1112   -0.0923 C.ar      1 <0>        -0.1485
      9 C8          2.0605    0.8058   -0.0819 C.cat     1 <0>        -0.0508
     10 N1          1.3208   -0.3426   -0.0898 N.pl3     1 <0>        -0.1328
     11 H1          1.6762   -1.2773   -0.0906 H         1 <0>         0.3114
     12 S1          3.8211    0.8761   -0.0704 S.3       1 <0>         0.4523
     13 C9          4.0640    2.6697   -0.0640 C.3       1 <0>        -0.3586
     14 C10         5.5394    2.9767   -0.0537 C.2       1 <0>         0.3298
     15 O2          6.3471    2.0720   -0.0510 O.2       1 <0>        -0.3312
     16 N2          5.9613    4.2567   -0.0475 N.am      1 <0>        -0.3011
     17 C11         7.3271    4.5427    0.0555 C.ar      1 <0>         0.1065
     18 C12         8.2600    3.7097   -0.5485 C.ar      1 <0>        -0.1359
     19 C13         9.6070    3.9976   -0.4495 C.ar      1 <0>        -0.0622
     20 C14        10.0279    5.1083    0.2590 C.ar      1 <0>        -0.1331
     21 C15         9.1021    5.9363    0.8662 C.ar      1 <0>        -0.0483
     22 C16         7.7530    5.6568    0.7665 C.ar      1 <0>        -0.1371
     23 N3          6.7626    6.5435    1.4172 N.pl3     1 <0>         0.5554
     24 O3          7.1280    7.5732    1.9555 O.2       1 <0>        -0.3151
     25 O4          5.5821    6.2435    1.4144 O.3       1 <0>        -0.4051
     26 H2         -4.8134    0.6234   -1.0120 H         1 <0>         0.0794
     27 H3         -4.8232    0.6180    0.7679 H         1 <0>         0.0798
     28 H4         -5.6825    1.8972   -0.1229 H         1 <0>         0.1385
     29 H5         -3.3381   -0.5490   -0.1182 H         1 <0>         0.1734
     30 H6         -1.1980   -1.7558   -0.1093 H         1 <0>         0.1633
     31 H7         -1.2734    3.1910   -0.0887 H         1 <0>         0.1731
     32 H8          3.6093    3.1011   -0.9557 H         1 <0>         0.1333
     33 H9          3.5979    3.0963    0.8242 H         1 <0>         0.1437
     34 H10         5.3181    4.9797   -0.1143 H         1 <0>         0.2665
     35 H11         7.9321    2.8399   -1.0985 H         1 <0>         0.1758
     36 H12        10.3326    3.3525   -0.9224 H         1 <0>         0.1571
     37 H13        11.0821    5.3290    0.3384 H         1 <0>         0.1609
     38 H14         9.4340    6.8025    1.4193 H         1 <0>         0.1770
     39 N4          1.2656    1.8486   -0.0834 N.pl3     1 <0>        -0.1394
     40 H15         1.5737    2.8280   -0.0786 H         1 <0>         0.3069
@<TRIPOS>BOND
     1    1    2 1
     2    1   26 1
     3    1   27 1
     4    1   28 1
     5    2    3 1
     6    3    8 ar
     7    3    4 ar
     8    4    5 ar
     9    4   29 1
    10    5    6 ar
    11    5   30 1
    12    6   10 1
    13    6    7 ar
    14    7    8 ar
    15    7   39 1
    16    8   31 1
    17    9   10 1
    18    9   12 1
    19    9   39 2
    20   10   11 1
    21   12   13 1
    22   13   14 1
    23   13   32 1
    24   13   33 1
    25   14   15 2
    26   14   16 am
    27   16   17 1
    28   16   34 1
    29   17   22 ar
    30   17   18 ar
    31   18   19 ar
    32   18   35 1
    33   19   20 ar
    34   19   36 1
    35   20   21 ar
    36   20   37 1
    37   21   22 ar
    38   21   38 1
    39   22   23 1
    40   23   24 2
    41   23   25 1
    42   39   40 1
@<TRIPOS>MOLECULE
ZINC03899739
   39    41     0     0     0
SMALL
USER_CHARGES

@<TRIPOS>ATOM
      1 C1         -4.8055    1.2499   -0.1238 C.3       1 <0>        -0.0617
      2 O1         -3.6222    2.0510   -0.1144 O.3       1 <0>        -0.2124
      3 C2         -2.4318    1.3939   -0.1091 C.ar      1 <0>         0.1071
      4 C3         -2.4097    0.0027   -0.1127 C.ar      1 <0>        -0.2203
      5 C4         -1.2088   -0.6759   -0.1069 C.ar      1 <0>        -0.0349
      6 C5         -0.0155    0.0300   -0.0965 C.ar      1 <0>        -0.0745
      7 C6         -0.0291    1.4343   -0.0936 C.ar      1 <0>        -0.0272
      8 C7         -1.2515    2.1112   -0.0944 C.ar      1 <0>        -0.1707
      9 N1          1.2652    1.8475   -0.0842 N.pl3     1 <0>        -0.1796
     10 C8          2.0605    0.8058   -0.0819 C.2       1 <0>        -0.1705
     11 N2          1.3208   -0.3426   -0.0898 N.2       1 <0>        -0.1373
     12 H1          1.5653    2.8014   -0.0796 H         1 <0>         0.2463
     13 S1          3.8211    0.8761   -0.0704 S.3       1 <0>         0.3709
     14 C9          4.0640    2.6697   -0.0640 C.3       1 <0>        -0.3507
     15 C10         5.5394    2.9767   -0.0537 C.2       1 <0>         0.3297
     16 O2          6.3471    2.0720   -0.0510 O.2       1 <0>        -0.3332
     17 N3          5.9613    4.2567   -0.0475 N.am      1 <0>        -0.3187
     18 C11         7.3271    4.5427    0.0555 C.ar      1 <0>         0.1279
     19 C12         8.2600    3.7097   -0.5485 C.ar      1 <0>        -0.1390
     20 C13         9.6070    3.9976   -0.4495 C.ar      1 <0>        -0.0661
     21 C14        10.0279    5.1083    0.2590 C.ar      1 <0>        -0.1504
     22 C15         9.1021    5.9363    0.8662 C.ar      1 <0>        -0.0536
     23 C16         7.7530    5.6568    0.7665 C.ar      1 <0>        -0.1479
     24 N4          6.7626    6.5435    1.4172 N.pl3     1 <0>         0.5564
     25 O3          7.1280    7.5732    1.9555 O.2       1 <0>        -0.3403
     26 O4          5.5821    6.2435    1.4144 O.3       1 <0>        -0.3878
     27 H2         -4.8129    0.6231   -1.0155 H         1 <0>         0.0688
     28 H3         -4.8236    0.6183    0.7644 H         1 <0>         0.0692
     29 H4         -5.6825    1.8972   -0.1272 H         1 <0>         0.1085
     30 H5         -3.3381   -0.5490   -0.1205 H         1 <0>         0.1399
     31 H6         -1.1980   -1.7558   -0.1101 H         1 <0>         0.1460
     32 H7         -1.2734    3.1910   -0.0912 H         1 <0>         0.1401
     33 H8          3.6093    3.1011   -0.9557 H         1 <0>         0.1213
     34 H9          3.5979    3.0963    0.8242 H         1 <0>         0.1317
     35 H10         5.3181    4.9797   -0.1143 H         1 <0>         0.2636
     36 H11         7.9321    2.8399   -1.0985 H         1 <0>         0.1826
     37 H12        10.3326    3.3525   -0.9224 H         1 <0>         0.1493
     38 H13        11.0821    5.3290    0.3384 H         1 <0>         0.1498
     39 H14         9.4340    6.8025    1.4193 H         1 <0>         0.1677
@<TRIPOS>BOND
     1    1    2 1
     2    1   27 1
     3    1   28 1
     4    1   29 1
     5    2    3 1
     6    3    8 ar
     7    3    4 ar
     8    4    5 ar
     9    4   30 1
    10    5    6 ar
    11    5   31 1
    12    6   11 1
    13    6    7 ar
    14    7    8 ar
    15    7    9 1
    16    8   32 1
    17    9   10 1
    18    9   12 1
    19   10   13 1
    20   10   11 2
    21   13   14 1
    22   14   15 1
    23   14   33 1
    24   14   34 1
    25   15   16 2
    26   15   17 am
    27   17   18 1
    28   17   35 1
    29   18   23 ar
    30   18   19 ar
    31   19   20 ar
    32   19   36 1
    33   20   21 ar
    34   20   37 1
    35   21   22 ar
    36   21   38 1
    37   22   23 ar
    38   22   39 1
    39   23   24 1
    40   24   25 2
    41   24   26 1
@<TRIPOS>MOLECULE
ZINC03899983
   45    46     0     0     0
SMALL
USER_CHARGES

@<TRIPOS>ATOM
      1 C1         -6.5354   -2.7106   -4.0601 C.3       1 <0>        -0.2360
      2 C2         -6.1695   -1.6219   -3.0845 C.2       1 <0>         0.3014
      3 O1         -5.7228   -1.9097   -1.9941 O.2       1 <0>        -0.3570
      4 N1         -6.3387   -0.3285   -3.4234 N.am      1 <0>        -0.3286
      5 C3         -6.0903    0.6803   -2.4834 C.ar      1 <0>         0.0425
      6 C4         -6.8699    1.8295   -2.4760 C.ar      1 <0>        -0.1396
      7 C5         -6.6284    2.8214   -1.5467 C.ar      1 <0>        -0.1332
      8 C6         -5.5992    2.6744   -0.6257 C.ar      1 <0>         0.0539
      9 C7         -4.8163    1.5273   -0.6367 C.ar      1 <0>        -0.1498
     10 C8         -5.0610    0.5334   -1.5629 C.ar      1 <0>        -0.1068
     11 N2         -5.3514    3.6823    0.3139 N.pl3     1 <0>        -0.3225
     12 C9         -5.3311    4.9996   -0.0800 C.2       1 <0>         0.0227
     13 N3         -6.1134    5.8738    0.5107 N.2       1 <0>        -0.1807
     14 C10        -6.0486    7.1973    0.1614 C.ar      1 <0>        -0.0111
     15 C11        -4.8368    7.8854    0.2479 C.ar      1 <0>        -0.1316
     16 C12        -4.7743    9.2157   -0.1095 C.ar      1 <0>        -0.1121
     17 C13        -5.9176    9.8743   -0.5447 C.ar      1 <0>         0.0476
     18 C14        -7.1264    9.1944   -0.6266 C.ar      1 <0>        -0.1532
     19 C15        -7.1954    7.8626   -0.2764 C.ar      1 <0>        -0.1023
     20 N4         -5.8512   11.2274   -0.9022 N.am      1 <0>        -0.3279
     21 C16        -5.0267   12.0605   -0.2370 C.2       1 <0>         0.3005
     22 O2         -4.2728   11.6223    0.6062 O.2       1 <0>        -0.3565
     23 C17        -5.0415   13.5366   -0.5406 C.3       1 <0>        -0.2364
     24 S1         -4.2555    5.5148   -1.3771 S.3       1 <0>         0.1101
     25 C18        -3.3382    3.9792   -1.6534 C.3       1 <0>        -0.3235
     26 H1         -6.9166   -2.2629   -4.9779 H         1 <0>         0.0782
     27 H2         -5.6519   -3.3074   -4.2867 H         1 <0>         0.1134
     28 H3         -7.3023   -3.3489   -3.6214 H         1 <0>         0.1165
     29 H4         -6.6285   -0.0958   -4.3194 H         1 <0>         0.2324
     30 H5         -7.6677    1.9454   -3.1946 H         1 <0>         0.1345
     31 H6         -7.2373    3.7133   -1.5383 H         1 <0>         0.1503
     32 H7         -4.0162    1.4127    0.0797 H         1 <0>         0.1386
     33 H8         -4.4522   -0.3586   -1.5715 H         1 <0>         0.1695
     34 H9         -5.1940    3.4513    1.2428 H         1 <0>         0.2528
     35 H10        -3.9486    7.3752    0.5904 H         1 <0>         0.1464
     36 H11        -3.8363    9.7475   -0.0470 H         1 <0>         0.1669
     37 H12        -8.0131    9.7097   -0.9654 H         1 <0>         0.1293
     38 H13        -8.1353    7.3345   -0.3411 H         1 <0>         0.1416
     39 H14        -6.3986   11.5645   -1.6286 H         1 <0>         0.2302
     40 H15        -5.7768   13.7400   -1.3191 H         1 <0>         0.0770
     41 H16        -5.3041   14.0903    0.3607 H         1 <0>         0.1149
     42 H17        -4.0544   13.8469   -0.8832 H         1 <0>         0.1120
     43 H18        -3.1404    3.4969   -0.6961 H         1 <0>         0.1062
     44 H19        -3.9281    3.3116   -2.2815 H         1 <0>         0.1070
     45 H20        -2.3938    4.2042   -2.1489 H         1 <0>         0.1123
@<TRIPOS>BOND
     1    1    2 1
     2    1   26 1
     3    1   27 1
     4    1   28 1
     5    2    3 2
     6    2    4 am
     7    4    5 1
     8    4   29 1
     9    5   10 ar
    10    5    6 ar
    11    6    7 ar
    12    6   30 1
    13    7    8 ar
    14    7   31 1
    15    8    9 ar
    16    8   11 1
    17    9   10 ar
    18    9   32 1
    19   10   33 1
    20   11   12 1
    21   11   34 1
    22   12   13 2
    23   12   24 1
    24   13   14 1
    25   14   19 ar
    26   14   15 ar
    27   15   16 ar
    28   15   35 1
    29   16   17 ar
    30   16   36 1
    31   17   18 ar
    32   17   20 1
    33   18   19 ar
    34   18   37 1
    35   19   38 1
    36   20   21 am
    37   20   39 1
    38   21   22 2
    39   21   23 1
    40   23   40 1
    41   23   41 1
    42   23   42 1
    43   24   25 1
    44   25   43 1
    45   25   44 1
    46   25   45 1
@<TRIPOS>MOLECULE
ZINC03900317
   40    41     0     0     0
SMALL
USER_CHARGES

@<TRIPOS>ATOM
      1 C1          6.4189    2.0233   -4.3771 C.3       1 <0>        -0.2074
      2 C2          5.2111    1.6451   -3.5590 C.2       1 <0>         0.2975
      3 O1          4.7683    0.5225   -3.6187 O.2       1 <0>        -0.3391
      4 O2          4.6269    2.5559   -2.7638 O.3       1 <0>        -0.2101
      5 C3          3.4832    2.1814   -2.1339 C.ar      1 <0>         0.0591
      6 C4          3.5447    1.3409   -1.0289 C.ar      1 <0>        -0.1286
      7 C5          2.3882    0.9578   -0.3869 C.ar      1 <0>        -0.1085
      8 C6          1.1494    1.4166   -0.8491 C.ar      1 <0>        -0.0469
      9 C7          1.0928    2.2587   -1.9655 C.ar      1 <0>        -0.1192
     10 C8          2.2558    2.6399   -2.5970 C.ar      1 <0>        -0.1215
     11 C9         -0.0884    1.0106   -0.1680 C.2       1 <0>        -0.1796
     12 C10        -1.1275    1.8739   -0.0809 C.2       1 <0>         0.0090
     13 C11        -0.9653    3.2655   -0.5229 C.2       1 <0>         0.3737
     14 O3         -1.4549    3.6305   -1.5753 O.2       1 <0>        -0.3526
     15 N1         -0.2743    4.1378    0.2373 N.am      1 <0>        -0.4125
     16 N2         -2.3556    1.4409    0.4298 N.am      1 <0>        -0.3067
     17 C12        -3.3503    2.3269    0.6349 C.2       1 <0>         0.3383
     18 O4         -3.2140    3.4846    0.2893 O.2       1 <0>        -0.3060
     19 C13        -4.6062    1.8914    1.2795 C.ar      1 <0>        -0.1267
     20 C14        -4.7685    0.5613    1.6725 C.ar      1 <0>        -0.0949
     21 C15        -5.9416    0.1623    2.2776 C.ar      1 <0>        -0.1375
     22 C16        -6.9618    1.0742    2.4870 C.ar      1 <0>        -0.0921
     23 C17        -6.8111    2.3921    2.0966 C.ar      1 <0>        -0.1329
     24 C18        -5.6394    2.8071    1.4936 C.ar      1 <0>         0.0045
     25 Cl1        -5.4518    4.4617    1.0028 Cl        1 <0>         0.0268
     26 H1          7.3233    1.8314   -3.7997 H         1 <0>         0.1117
     27 H2          6.4388    1.4300   -5.2913 H         1 <0>         0.1188
     28 H3          6.3683    3.0819   -4.6319 H         1 <0>         0.1026
     29 H4          4.5012    0.9871   -0.6733 H         1 <0>         0.1403
     30 H5          2.4371    0.3042    0.4715 H         1 <0>         0.1335
     31 H6          0.1391    2.6119   -2.3289 H         1 <0>         0.1748
     32 H7          2.2136    3.2930   -3.4561 H         1 <0>         0.1451
     33 H8         -0.1704    0.0220    0.2591 H         1 <0>         0.1370
     34 H9          0.1774    3.8307    1.0390 H         1 <0>         0.2166
     35 H10        -0.2285    5.0727   -0.0172 H         1 <0>         0.2372
     36 H11        -2.4914    0.5029    0.6365 H         1 <0>         0.2371
     37 H12        -3.9754   -0.1527    1.5062 H         1 <0>         0.1292
     38 H13        -6.0666   -0.8655    2.5848 H         1 <0>         0.1385
     39 H14        -7.8800    0.7547    2.9574 H         1 <0>         0.1404
     40 H15        -7.6110    3.0983    2.2631 H         1 <0>         0.1510
@<TRIPOS>BOND
     1    1    2 1
     2    1   26 1
     3    1   27 1
     4    1   28 1
     5    2    3 2
     6    2    4 1
     7    4    5 1
     8    5   10 ar
     9    5    6 ar
    10    6    7 ar
    11    6   29 1
    12    7    8 ar
    13    7   30 1
    14    8    9 ar
    15    8   11 1
    16    9   10 ar
    17    9   31 1
    18   10   32 1
    19   11   12 2
    20   11   33 1
    21   12   13 1
    22   12   16 1
    23   13   14 2
    24   13   15 am
    25   15   34 1
    26   15   35 1
    27   16   17 am
    28   16   36 1
    29   17   18 2
    30   17   19 1
    31   19   24 ar
    32   19   20 ar
    33   20   21 ar
    34   20   37 1
    35   21   22 ar
    36   21   38 1
    37   22   23 ar
    38   22   39 1
    39   23   24 ar
    40   23   40 1
    41   24   25 1
@<TRIPOS>MOLECULE
ZINC03900335
   43    45     0     0     0
SMALL
USER_CHARGES

@<TRIPOS>ATOM
      1 C1          5.1481   -0.2975   -3.8156 C.3       1 <0>        -0.0701
      2 O1          4.1381   -0.3269   -2.8051 O.3       1 <0>        -0.1655
      3 C2          4.3931   -1.0726   -1.7009 C.ar      1 <0>         0.1578
      4 C3          5.5905   -1.7634   -1.5881 C.ar      1 <0>        -0.2336
      5 C4          5.8491   -2.5213   -0.4634 C.ar      1 <0>        -0.0588
      6 C5          4.9174   -2.5985    0.5591 C.ar      1 <0>        -0.1780
      7 C6          3.7247   -1.9149    0.4660 C.ar      1 <0>        -0.0691
      8 C7          3.4480   -1.1481   -0.6688 C.ar      1 <0>        -0.1773
      9 C8          2.1712   -0.4175   -0.7772 C.2       1 <0>         0.3302
     10 O2          1.9361    0.2529   -1.7643 O.2       1 <0>        -0.3141
     11 N1          1.2651   -0.4928    0.2177 N.am      1 <0>        -0.3538
     12 C9          0.0159    0.1208    0.0741 C.2       1 <0>        -0.0283
     13 C10        -1.1161   -0.6132    0.1884 C.2       1 <0>        -0.0597
     14 C11        -1.0344   -2.0758    0.3094 C.ar      1 <0>        -0.0658
     15 C12         0.0439   -2.7677   -0.2537 C.ar      1 <0>        -0.1129
     16 C13         0.1196   -4.1381   -0.1350 C.ar      1 <0>        -0.1207
     17 C14        -0.8755   -4.8385    0.5338 C.ar      1 <0>         0.0131
     18 C15        -1.9565   -4.1559    1.0934 C.ar      1 <0>        -0.0014
     19 C16        -2.0376   -2.7816    0.9829 C.ar      1 <0>        -0.0939
     20 O3         -2.7847   -5.0644    1.6875 O.3       1 <0>        -0.2059
     21 C17        -1.9963   -6.2591    1.8420 C.3       1 <0>         0.1065
     22 O4         -1.0297   -6.1719    0.7787 O.3       1 <0>        -0.2060
     23 C18        -0.0676    1.5612   -0.2004 C.2       1 <0>         0.3549
     24 O5         -1.1455    2.0742   -0.4361 O.2       1 <0>        -0.3535
     25 N2          1.0505    2.3138   -0.1969 N.am      1 <0>        -0.3115
     26 N3          0.9631    3.6675   -0.3567 N.3       1 <0>        -0.2088
     27 H1          6.0699    0.1057   -3.3963 H         1 <0>         0.0663
     28 H2          5.3269   -1.3091   -4.1802 H         1 <0>         0.0685
     29 H3          4.8180    0.3332   -4.6410 H         1 <0>         0.1202
     30 H4          6.3218   -1.7082   -2.3810 H         1 <0>         0.1440
     31 H5          6.7832   -3.0567   -0.3800 H         1 <0>         0.1354
     32 H6          5.1288   -3.1936    1.4352 H         1 <0>         0.1365
     33 H7          3.0032   -1.9744    1.2675 H         1 <0>         0.1305
     34 H8          1.4790   -0.9725    1.0332 H         1 <0>         0.2365
     35 H9         -2.0789   -0.1241    0.1906 H         1 <0>         0.1730
     36 H10         0.8180   -2.2273   -0.7782 H         1 <0>         0.1606
     37 H11         0.9544   -4.6702   -0.5668 H         1 <0>         0.1465
     38 H12        -2.8737   -2.2525    1.4159 H         1 <0>         0.1494
     39 H13        -1.4989   -6.2669    2.8119 H         1 <0>         0.0872
     40 H14        -2.6181   -7.1464    1.7224 H         1 <0>         0.1326
     41 H15         1.9173    1.8941   -0.0807 H         1 <0>         0.2295
     42 H16         0.3552    4.0752    0.3378 H         1 <0>         0.1545
     43 H17         1.8771    4.0943   -0.3325 H         1 <0>         0.1554
@<TRIPOS>BOND
     1    1    2 1
     2    1   27 1
     3    1   28 1
     4    1   29 1
     5    2    3 1
     6    3    8 ar
     7    3    4 ar
     8    4    5 ar
     9    4   30 1
    10    5    6 ar
    11    5   31 1
    12    6    7 ar
    13    6   32 1
    14    7    8 ar
    15    7   33 1
    16    8    9 1
    17    9   10 2
    18    9   11 am
    19   11   12 1
    20   11   34 1
    21   12   13 2
    22   12   23 1
    23   13   14 1
    24   13   35 1
    25   14   19 ar
    26   14   15 ar
    27   15   16 ar
    28   15   36 1
    29   16   17 ar
    30   16   37 1
    31   17   22 1
    32   17   18 ar
    33   18   19 ar
    34   18   20 1
    35   19   38 1
    36   20   21 1
    37   21   22 1
    38   21   39 1
    39   21   40 1
    40   23   24 2
    41   23   25 am
    42   25   26 1
    43   25   41 1
    44   26   42 1
    45   26   43 1
@<TRIPOS>MOLECULE
ZINC03900725
   35    37     0     0     0
SMALL
USER_CHARGES

@<TRIPOS>ATOM
      1 C1          5.2815   13.3766    0.0184 C.3       1 <0>        -0.0622
      2 O1          6.3911   12.4762    0.0034 O.3       1 <0>        -0.1818
      3 C2          6.1070   11.1463   -0.0002 C.ar      1 <0>        -0.0180
      4 C3          4.7919   10.7204    0.0104 C.ar      1 <0>        -0.1585
      5 C4          4.5037    9.3533    0.0066 C.ar      1 <0>        -0.2003
      6 C5          5.5463    8.4232   -0.0021 C.ar      1 <0>         0.0194
      7 C6          6.8557    8.8558   -0.0180 C.ar      1 <0>        -0.2688
      8 C7          7.1414   10.2132   -0.0142 C.ar      1 <0>         0.2480
      9 N1          7.9592    7.8690   -0.0328 N.pl3     1 <0>         0.5752
     10 O2          7.7101    6.6768   -0.0362 O.2       1 <0>        -0.4469
     11 O3          9.1163    8.2495   -0.0417 O.3       1 <0>        -0.3509
     12 C8          3.1031    8.8932    0.0178 C.2       1 <0>        -0.0257
     13 N2          2.8372    7.6225    0.0142 N.2       1 <0>        -0.0864
     14 N3          1.5062    7.1853    0.0248 N.pl3     1 <0>        -0.2483
     15 C9          1.2236    5.8348    0.0211 C.2       1 <0>         0.0794
     16 N4          0.0530    5.2375    0.0294 N.2       1 <0>        -0.3203
     17 C10        -0.0752    3.8932    0.0238 C.ar      1 <0>         0.0401
     18 C11        -1.2657    3.1298    0.0310 C.ar      1 <0>        -0.1088
     19 C12        -1.2194    1.7602    0.0174 C.ar      1 <0>        -0.1251
     20 C13        -0.0126    1.0758    0.0080 C.ar      1 <0>        -0.1576
     21 C14         1.1714    1.7906    0.0005 C.ar      1 <0>        -0.0638
     22 C15         1.1348    3.1624    0.0083 C.ar      1 <0>        -0.2971
     23 S1          2.3564    4.4525    0.0030 S.3       1 <0>         0.3109
     24 H1          4.6671   13.2108   -0.8665 H         1 <0>         0.0522
     25 H2          4.6842   13.2022    0.9134 H         1 <0>         0.0521
     26 H3          5.6469   14.4035    0.0198 H         1 <0>         0.0884
     27 H4          3.9891   11.4428    0.0212 H         1 <0>         0.1087
     28 H5          5.3268    7.3658   -0.0002 H         1 <0>         0.1543
     29 H6          2.2983    9.6133    0.0289 H         1 <0>         0.0993
     30 H7          0.7833    7.8321    0.0349 H         1 <0>         0.2258
     31 H8         -2.2219    3.6318    0.0429 H         1 <0>         0.1328
     32 H9         -2.1432    1.2009    0.0183 H         1 <0>         0.1197
     33 H10         0.0021   -0.0041    0.0020 H         1 <0>         0.1247
     34 H11         2.1189    1.2723   -0.0117 H         1 <0>         0.1316
     35 O4          8.4341   10.6342   -0.0246 O.3       1 <0>        -0.4422
@<TRIPOS>BOND
     1    1    2 1
     2    1   24 1
     3    1   25 1
     4    1   26 1
     5    2    3 1
     6    3    8 ar
     7    3    4 ar
     8    4    5 ar
     9    4   27 1
    10    5    6 ar
    11    5   12 1
    12    6    7 ar
    13    6   28 1
    14    7    8 ar
    15    7    9 1
    16    8   35 1
    17    9   10 2
    18    9   11 1
    19   12   13 2
    20   12   29 1
    21   13   14 1
    22   14   15 1
    23   14   30 1
    24   15   23 1
    25   15   16 2
    26   16   17 1
    27   17   22 ar
    28   17   18 ar
    29   18   19 ar
    30   18   31 1
    31   19   20 ar
    32   19   32 1
    33   20   21 ar
    34   20   33 1
    35   21   22 ar
    36   21   34 1
    37   22   23 1
@<TRIPOS>MOLECULE
ZINC03900896
   47    50     0     0     0
SMALL
USER_CHARGES

@<TRIPOS>ATOM
      1 C1         -1.3216    2.0652    0.0048 C.3       1 <0>        -0.1824
      2 C2         -0.0162    1.3122    0.0003 C.ar      1 <0>         0.1436
      3 C3          1.2118    2.0001   -0.0042 C.ar      1 <0>        -0.1242
      4 C4          1.2791    3.4005    0.0004 C.ar      1 <0>        -0.1288
      5 C5          2.5000    4.0151   -0.0049 C.ar      1 <0>         0.1125
      6 C6          3.6796    3.2653   -0.0152 C.ar      1 <0>        -0.1412
      7 C7          3.6458    1.9042   -0.0185 C.ar      1 <0>        -0.0973
      8 C8          2.4098    1.2403   -0.0138 C.ar      1 <0>         0.0488
      9 N1          2.3243   -0.0962   -0.0186 N.ar      1 <0>        -0.2805
     10 C9          1.1456   -0.6854   -0.0144 C.ar      1 <0>         0.1984
     11 N2          0.0018   -0.0042   -0.0049 N.ar      1 <0>        -0.2323
     12 N3          1.0945   -2.0721   -0.0195 N.pl3     1 <0>        -0.2469
     13 C10         2.2558   -2.8038   -0.1385 C.cat     1 <0>         0.3548
     14 C11         4.6579   -2.9177   -0.2595 C.3       1 <0>         0.0408
     15 H1          4.9772   -3.2525    0.7274 H         1 <0>         0.1355
     16 C12         4.4690   -4.1315   -1.1719 C.3       1 <0>        -0.1963
     17 C13         3.2217   -4.8711   -0.7548 C.2       1 <0>         0.2998
     18 O1          3.1566   -6.0765   -0.8690 O.2       1 <0>        -0.2431
     19 N4          2.1797   -4.1760   -0.2540 N.am      1 <0>        -0.3211
     20 C14         5.7087   -2.0098   -0.8448 C.ar      1 <0>        -0.1325
     21 C15         5.3816   -1.1484   -1.8753 C.ar      1 <0>        -0.1239
     22 C16         6.3442   -0.3118   -2.4086 C.ar      1 <0>        -0.1210
     23 C17         7.6365   -0.3443   -1.9188 C.ar      1 <0>        -0.0994
     24 C18         7.9649   -1.2097   -0.8921 C.ar      1 <0>        -0.1123
     25 C19         7.0009   -2.0423   -0.3549 C.ar      1 <0>        -0.1015
     26 O2          2.5678    5.3726   -0.0004 O.3       1 <0>        -0.1926
     27 C20         3.8718    5.9571   -0.0063 C.3       1 <0>        -0.0706
     28 H2         -1.6351    2.2427    1.0336 H         1 <0>         0.1248
     29 H3         -1.1922    3.0197   -0.5053 H         1 <0>         0.1122
     30 H4         -2.0816    1.4780   -0.5105 H         1 <0>         0.1227
     31 H5          0.3735    3.9889    0.0084 H         1 <0>         0.1704
     32 H6          4.6326    3.7734   -0.0192 H         1 <0>         0.1609
     33 H7          4.5657    1.3384   -0.0255 H         1 <0>         0.1570
     34 H8          0.2411   -2.5263    0.0607 H         1 <0>         0.2898
     35 H9          5.3314   -4.7921   -1.0832 H         1 <0>         0.1683
     36 H10         4.3674   -3.7989   -2.2049 H         1 <0>         0.1457
     37 H11         1.3760   -4.6419    0.0250 H         1 <0>         0.2774
     38 H12         4.3731   -1.1262   -2.2610 H         1 <0>         0.1287
     39 H13         6.0876    0.3646   -3.2105 H         1 <0>         0.1458
     40 H14         8.3894    0.3067   -2.3379 H         1 <0>         0.1498
     41 H15         8.9745   -1.2351   -0.5094 H         1 <0>         0.1522
     42 H16         7.2575   -2.7184    0.4472 H         1 <0>         0.1408
     43 H17         4.4190    5.6336    0.8792 H         1 <0>         0.0752
     44 H18         4.4081    5.6399   -0.9007 H         1 <0>         0.0738
     45 H19         3.7831    7.0434   -0.0019 H         1 <0>         0.1328
     46 N5          3.3951   -2.1066   -0.1386 N.pl3     1 <0>        -0.2755
     47 H20         3.4089   -1.0828   -0.0612 H         1 <0>         0.3610
@<TRIPOS>BOND
     1    1    2 1
     2    1   28 1
     3    1   29 1
     4    1   30 1
     5    2   11 ar
     6    2    3 ar
     7    3    8 ar
     8    3    4 ar
     9    4    5 ar
    10    4   31 1
    11    5    6 ar
    12    5   26 1
    13    6    7 ar
    14    6   32 1
    15    7    8 ar
    16    7   33 1
    17    8    9 ar
    18    9   10 ar
    19   10   11 ar
    20   10   12 1
    21   12   13 1
    22   12   34 1
    23   13   19 1
    24   13   46 2
    25   14   15 1
    26   14   16 1
    27   14   20 1
    28   14   46 1
    29   16   17 1
    30   16   35 1
    31   16   36 1
    32   17   18 2
    33   17   19 am
    34   19   37 1
    35   20   25 ar
    36   20   21 ar
    37   21   22 ar
    38   21   38 1
    39   22   23 ar
    40   22   39 1
    41   23   24 ar
    42   23   40 1
    43   24   25 ar
    44   24   41 1
    45   25   42 1
    46   26   27 1
    47   27   43 1
    48   27   44 1
    49   27   45 1
    50   46   47 1
@<TRIPOS>MOLECULE
ZINC03902931
   36    38     0     0     0
SMALL
USER_CHARGES

@<TRIPOS>ATOM
      1 C1         -0.1412    4.0797    0.0253 C.3       1 <0>        -0.0654
      2 O1          1.1443    3.4557    0.0097 O.3       1 <0>        -0.1824
      3 C2          1.1705    2.0959    0.0021 C.ar      1 <0>        -0.0197
      4 C3         -0.0167    1.3797    0.0096 C.ar      1 <0>        -0.1545
      5 C4          0.0021   -0.0041    0.0020 C.ar      1 <0>        -0.2338
      6 C5          1.2020   -0.6839   -0.0131 C.ar      1 <0>        -0.0118
      7 C6          2.4062    0.0248   -0.0207 C.ar      1 <0>        -0.2054
      8 C7          2.3867    1.4248   -0.0130 C.ar      1 <0>         0.2379
      9 C8          3.6907   -0.6979   -0.0373 C.2       1 <0>        -0.0841
     10 N1          4.8076   -0.0363   -0.0444 N.2       1 <0>         0.0636
     11 N2          6.0286   -0.7233   -0.0602 N.pl3     1 <0>        -0.3020
     12 C9          7.2151   -0.0205   -0.0678 C.2       1 <0>         0.2233
     13 N3          8.4605   -0.5824   -0.0831 N.pl3     1 <0>        -0.2704
     14 H1          8.6700   -1.5602   -0.0902 H         1 <0>         0.2362
     15 C10         9.3784    0.4544   -0.0869 C.ar      1 <0>        -0.0683
     16 C11        10.7638    0.5119   -0.1005 C.ar      1 <0>        -0.1261
     17 C12        11.4005    1.7358   -0.1006 C.ar      1 <0>        -0.1485
     18 C13        10.6638    2.9111   -0.0872 C.ar      1 <0>        -0.1501
     19 C14         9.2877    2.8732   -0.0737 C.ar      1 <0>        -0.0854
     20 C15         8.6273    1.6415   -0.0734 C.ar      1 <0>        -0.0053
     21 N4          7.3165    1.2858   -0.0670 N.2       1 <0>        -0.1680
     22 N5         -1.2718   -0.7581    0.0106 N.pl3     1 <0>         0.5710
     23 O2         -2.3331   -0.1606    0.0243 O.2       1 <0>        -0.4250
     24 O3         -1.2586   -1.9760    0.0039 O.3       1 <0>        -0.4301
     25 H2         -0.7009    3.7809   -0.8610 H         1 <0>         0.0564
     26 H3         -0.6839    3.7714    0.9188 H         1 <0>         0.0565
     27 H4         -0.0192    5.1629    0.0299 H         1 <0>         0.0853
     28 H5         -0.9607    1.9043    0.0169 H         1 <0>         0.1352
     29 H6          1.2108   -1.7639   -0.0186 H         1 <0>         0.1264
     30 H7          3.7027   -1.7778   -0.0436 H         1 <0>         0.0856
     31 H8          6.0393   -1.6932   -0.0659 H         1 <0>         0.1933
     32 H9         11.3432   -0.3995   -0.1113 H         1 <0>         0.1104
     33 H10        12.4795    1.7792   -0.1115 H         1 <0>         0.1162
     34 H11        11.1737    3.8632   -0.0878 H         1 <0>         0.1192
     35 H12         8.7204    3.7921   -0.0633 H         1 <0>         0.1444
     36 O4          3.5524    2.1239   -0.0199 O.3       1 <0>        -0.4247
@<TRIPOS>BOND
     1    1    2 1
     2    1   25 1
     3    1   26 1
     4    1   27 1
     5    2    3 1
     6    3    8 ar
     7    3    4 ar
     8    4    5 ar
     9    4   28 1
    10    5    6 ar
    11    5   22 1
    12    6    7 ar
    13    6   29 1
    14    7    8 ar
    15    7    9 1
    16    8   36 1
    17    9   10 2
    18    9   30 1
    19   10   11 1
    20   11   12 1
    21   11   31 1
    22   12   21 2
    23   12   13 1
    24   13   14 1
    25   13   15 1
    26   15   20 ar
    27   15   16 ar
    28   16   17 ar
    29   16   32 1
    30   17   18 ar
    31   17   33 1
    32   18   19 ar
    33   18   34 1
    34   19   20 ar
    35   19   35 1
    36   20   21 1
    37   22   23 2
    38   22   24 1
@<TRIPOS>MOLECULE
ZINC03902931
   37    39     0     0     0
SMALL
USER_CHARGES

@<TRIPOS>ATOM
      1 C1         -0.1412    4.0797    0.0253 C.3       1 <0>        -0.0691
      2 O1          1.1443    3.4557    0.0097 O.3       1 <0>        -0.1831
      3 C2          1.1705    2.0959    0.0021 C.ar      1 <0>         0.0030
      4 C3         -0.0167    1.3797    0.0096 C.ar      1 <0>        -0.1536
      5 C4          0.0021   -0.0041    0.0020 C.ar      1 <0>        -0.1933
      6 C5          1.2020   -0.6839   -0.0131 C.ar      1 <0>        -0.0026
      7 C6          2.4062    0.0248   -0.0207 C.ar      1 <0>        -0.2418
      8 C7          2.3867    1.4248   -0.0130 C.ar      1 <0>         0.2605
      9 C8          3.6907   -0.6979   -0.0373 C.2       1 <0>         0.0221
     10 N1          4.8076   -0.0363   -0.0444 N.2       1 <0>        -0.0701
     11 N2          6.0286   -0.7233   -0.0602 N.pl3     1 <0>        -0.2566
     12 C9          7.2151   -0.0205   -0.0678 C.cat     1 <0>         0.3266
     13 N3          8.4605   -0.5824   -0.0831 N.pl3     1 <0>        -0.2390
     14 H1          8.6700   -1.5602   -0.0902 H         1 <0>         0.2885
     15 C10         9.3784    0.4544   -0.0869 C.ar      1 <0>        -0.0134
     16 C11        10.7638    0.5119   -0.1005 C.ar      1 <0>        -0.1103
     17 C12        11.4005    1.7358   -0.1006 C.ar      1 <0>        -0.0998
     18 C13        10.6638    2.9111   -0.0872 C.ar      1 <0>        -0.1059
     19 C14         9.2877    2.8732   -0.0737 C.ar      1 <0>        -0.0926
     20 C15         8.6273    1.6415   -0.0734 C.ar      1 <0>        -0.0190
     21 N4         -1.2718   -0.7581    0.0106 N.pl3     1 <0>         0.5656
     22 O2         -2.3331   -0.1606    0.0243 O.2       1 <0>        -0.3885
     23 O3         -1.2586   -1.9760    0.0039 O.3       1 <0>        -0.4017
     24 H2         -0.7009    3.7809   -0.8610 H         1 <0>         0.0647
     25 H3         -0.6839    3.7714    0.9188 H         1 <0>         0.0648
     26 H4         -0.0192    5.1629    0.0299 H         1 <0>         0.0990
     27 H5         -0.9607    1.9043    0.0169 H         1 <0>         0.1521
     28 H6          1.2108   -1.7639   -0.0186 H         1 <0>         0.1370
     29 H7          3.7027   -1.7778   -0.0436 H         1 <0>         0.1064
     30 H8          6.0393   -1.6932   -0.0659 H         1 <0>         0.2230
     31 H9         11.3432   -0.3995   -0.1113 H         1 <0>         0.1461
     32 H10        12.4795    1.7792   -0.1115 H         1 <0>         0.1525
     33 H11        11.1737    3.8632   -0.0878 H         1 <0>         0.1547
     34 H12         8.7204    3.7921   -0.0633 H         1 <0>         0.1596
     35 O4          3.5524    2.1239   -0.0199 O.3       1 <0>        -0.4854
     36 N5          7.3158    1.2864   -0.0670 N.pl3     1 <0>        -0.1502
     37 H13         6.5250    1.9413   -0.0623 H         1 <0>         0.3498
@<TRIPOS>BOND
     1    1    2 1
     2    1   24 1
     3    1   25 1
     4    1   26 1
     5    2    3 1
     6    3    8 ar
     7    3    4 ar
     8    4    5 ar
     9    4   27 1
    10    5    6 ar
    11    5   21 1
    12    6    7 ar
    13    6   28 1
    14    7    8 ar
    15    7    9 1
    16    8   35 1
    17    9   10 2
    18    9   29 1
    19   10   11 1
    20   11   12 1
    21   11   30 1
    22   12   13 1
    23   12   36 2
    24   13   14 1
    25   13   15 1
    26   15   20 ar
    27   15   16 ar
    28   16   17 ar
    29   16   31 1
    30   17   18 ar
    31   17   32 1
    32   18   19 ar
    33   18   33 1
    34   19   20 ar
    35   19   34 1
    36   20   36 1
    37   21   22 2
    38   21   23 1
    39   36   37 1
@<TRIPOS>MOLECULE
ZINC03903110
   43    45     0     0     0
SMALL
USER_CHARGES

@<TRIPOS>ATOM
      1 C1          9.7146   -8.3711   -0.0477 C.3       1 <0>        -0.0656
      2 O1          8.5092   -9.1294    0.0706 O.3       1 <0>        -0.1937
      3 C2          7.3415   -8.4337    0.0862 C.ar      1 <0>         0.0897
      4 C3          7.3592   -7.0498   -0.0111 C.ar      1 <0>        -0.2000
      5 C4          6.1774   -6.3395   -0.0021 C.ar      1 <0>        -0.0803
      6 C5          4.9587   -7.0129    0.1169 C.ar      1 <0>        -0.0580
      7 C6          4.9413   -8.4067    0.2148 C.ar      1 <0>        -0.1684
      8 C7          6.1299   -9.1121    0.1993 C.ar      1 <0>         0.0646
      9 O2          6.1167  -10.4687    0.2949 O.3       1 <0>        -0.1948
     10 C8          4.8391  -11.0986    0.4088 C.3       1 <0>        -0.0646
     11 C9          3.6945   -6.2553    0.1329 C.2       1 <0>        -0.0916
     12 N1          3.7126   -4.9602    0.0418 N.2       1 <0>        -0.0033
     13 N2          2.5109   -4.2400    0.0571 N.am      1 <0>        -0.3218
     14 C10         2.5297   -2.8957   -0.0376 C.2       1 <0>         0.3665
     15 O3          3.5895   -2.3079   -0.1362 O.2       1 <0>        -0.3205
     16 C11         1.2616   -2.1358   -0.0215 C.2       1 <0>        -0.0340
     17 C12         0.0324   -2.7811   -0.0277 C.2       1 <0>        -0.1634
     18 C13        -1.1429   -2.0221   -0.0119 C.2       1 <0>         0.2723
     19 N3         -1.1323   -0.7097    0.0091 N.am      1 <0>        -0.1918
     20 C14         0.0022   -0.0042    0.0166 C.ar      1 <0>         0.0774
     21 C15         1.2509   -0.6730    0.0017 C.ar      1 <0>        -0.1001
     22 C16         2.4379    0.0679    0.0094 C.ar      1 <0>        -0.0612
     23 C17         2.3811    1.4299    0.0312 C.ar      1 <0>        -0.1641
     24 C18         1.1560    2.0926    0.0459 C.ar      1 <0>        -0.0677
     25 C19        -0.0168    1.4018    0.0389 C.ar      1 <0>        -0.1864
     26 O4         -2.3363   -2.6658   -0.0187 O.2       1 <0>        -0.4371
     27 H1          9.6982   -7.8057   -0.9794 H         1 <0>         0.0684
     28 H2          9.7949   -7.6828    0.7937 H         1 <0>         0.0684
     29 H3         10.5702   -9.0465   -0.0475 H         1 <0>         0.1113
     30 H4          8.3007   -6.5280   -0.0986 H         1 <0>         0.1455
     31 H5          6.1939   -5.2627   -0.0830 H         1 <0>         0.1604
     32 H6          4.0016   -8.9315    0.3029 H         1 <0>         0.1409
     33 H7          4.3341  -10.7369    1.3045 H         1 <0>         0.0653
     34 H8          4.2374  -10.8610   -0.4685 H         1 <0>         0.0654
     35 H9          4.9711  -12.1784    0.4771 H         1 <0>         0.1116
     36 H10         2.7531   -6.7773    0.2205 H         1 <0>         0.1166
     37 H11         1.6654   -4.7090    0.1357 H         1 <0>         0.2136
     38 H12        -0.0162   -3.8599   -0.0445 H         1 <0>         0.1612
     39 H13         3.3931   -0.4361   -0.0013 H         1 <0>         0.1916
     40 H14         3.2972    2.0020    0.0368 H         1 <0>         0.1403
     41 H15         1.1364    3.1723    0.0630 H         1 <0>         0.1362
     42 H16        -0.9581    1.9313    0.0460 H         1 <0>         0.1390
     43 H17        -2.0044   -0.2205    0.0198 H         1 <0>         0.2623
@<TRIPOS>BOND
     1    1    2 1
     2    1   27 1
     3    1   28 1
     4    1   29 1
     5    2    3 1
     6    3    8 ar
     7    3    4 ar
     8    4    5 ar
     9    4   30 1
    10    5    6 ar
    11    5   31 1
    12    6    7 ar
    13    6   11 1
    14    7    8 ar
    15    7   32 1
    16    8    9 1
    17    9   10 1
    18   10   33 1
    19   10   34 1
    20   10   35 1
    21   11   12 2
    22   11   36 1
    23   12   13 1
    24   13   14 am
    25   13   37 1
    26   14   15 2
    27   14   16 1
    28   16   17 2
    29   16   21 1
    30   17   38 1
    31   17   18 1
    32   18   19 am
    33   18   26 2
    34   19   43 1
    35   19   20 1
    36   20   25 ar
    37   20   21 ar
    38   21   22 ar
    39   22   23 ar
    40   22   39 1
    41   23   24 ar
    42   23   40 1
    43   24   25 ar
    44   24   41 1
    45   25   42 1
@<TRIPOS>MOLECULE
ZINC03903110
   43    45     0     0     0
SMALL
USER_CHARGES

@<TRIPOS>ATOM
      1 C1          9.7146   -8.3711   -0.0448 C.3       1 <0>        -0.0657
      2 O1          8.5092   -9.1294    0.0735 O.3       1 <0>        -0.1938
      3 C2          7.3415   -8.4337    0.0888 C.ar      1 <0>         0.0896
      4 C3          7.3592   -7.0498   -0.0087 C.ar      1 <0>        -0.1994
      5 C4          6.1774   -6.3395   -0.0000 C.ar      1 <0>        -0.0800
      6 C5          4.9587   -7.0129    0.1190 C.ar      1 <0>        -0.0574
      7 C6          4.9413   -8.4067    0.2171 C.ar      1 <0>        -0.1698
      8 C7          6.1299   -9.1121    0.2019 C.ar      1 <0>         0.0644
      9 O2          6.1166  -10.4687    0.2978 O.3       1 <0>        -0.1945
     10 C8          4.8390  -11.0985    0.4117 C.3       1 <0>        -0.0643
     11 C9          3.6945   -6.2553    0.1346 C.2       1 <0>        -0.0963
     12 N1          3.7126   -4.9602    0.0433 N.2       1 <0>         0.0011
     13 N2          2.5109   -4.2400    0.0583 N.am      1 <0>        -0.3255
     14 C10         2.5297   -2.8957   -0.0367 C.2       1 <0>         0.3670
     15 O3          3.5895   -2.3079   -0.1353 O.2       1 <0>        -0.3160
     16 C11         1.2616   -2.1358   -0.0209 C.ar      1 <0>        -0.0368
     17 C12         0.0324   -2.7811   -0.0272 C.ar      1 <0>        -0.2392
     18 C13        -1.1429   -2.0221   -0.0121 C.ar      1 <0>         0.1647
     19 N3         -1.1323   -0.7097    0.0089 N.ar      1 <0>        -0.1724
     20 C14         0.0022   -0.0042    0.0165 C.ar      1 <0>         0.0648
     21 C15         1.2509   -0.6730    0.0020 C.ar      1 <0>        -0.0855
     22 C16         2.4379    0.0679    0.0097 C.ar      1 <0>        -0.0973
     23 C17         2.3811    1.4299    0.0313 C.ar      1 <0>        -0.1377
     24 C18         1.1560    2.0926    0.0456 C.ar      1 <0>        -0.1036
     25 C19        -0.0168    1.4018    0.0388 C.ar      1 <0>        -0.1140
     26 O4         -2.3363   -2.6658   -0.0188 O.3       1 <0>        -0.2267
     27 H1          9.6983   -7.8059   -0.9766 H         1 <0>         0.0686
     28 H2          9.7948   -7.6827    0.7965 H         1 <0>         0.0686
     29 H3         10.5702   -9.0465   -0.0443 H         1 <0>         0.1114
     30 H4          8.3007   -6.5280   -0.0962 H         1 <0>         0.1460
     31 H5          6.1939   -5.2627   -0.0811 H         1 <0>         0.1612
     32 H6          4.0016   -8.9314    0.3052 H         1 <0>         0.1394
     33 H7          4.3339  -10.7366    1.3072 H         1 <0>         0.0648
     34 H8          4.2374  -10.8611   -0.4658 H         1 <0>         0.0646
     35 H9          4.9710  -12.1783    0.4802 H         1 <0>         0.1115
     36 H10         2.7531   -6.7773    0.2222 H         1 <0>         0.1128
     37 H11         1.6654   -4.7090    0.1369 H         1 <0>         0.2069
     38 H12        -0.0162   -3.8599   -0.0439 H         1 <0>         0.1271
     39 H13         3.3931   -0.4361   -0.0008 H         1 <0>         0.1850
     40 H14         3.2972    2.0020    0.0369 H         1 <0>         0.1358
     41 H15         1.1364    3.1723    0.0625 H         1 <0>         0.1340
     42 H16        -0.9581    1.9313    0.0459 H         1 <0>         0.1521
     43 H17        -2.1821   -3.6537   -0.0351 H         1 <0>         0.2340
@<TRIPOS>BOND
     1    1    2 1
     2    1   27 1
     3    1   28 1
     4    1   29 1
     5    2    3 1
     6    3    8 ar
     7    3    4 ar
     8    4    5 ar
     9    4   30 1
    10    5    6 ar
    11    5   31 1
    12    6    7 ar
    13    6   11 1
    14    7    8 ar
    15    7   32 1
    16    8    9 1
    17    9   10 1
    18   10   33 1
    19   10   34 1
    20   10   35 1
    21   11   12 2
    22   11   36 1
    23   12   13 1
    24   13   14 am
    25   13   37 1
    26   14   15 2
    27   14   16 1
    28   16   17 ar
    29   16   21 ar
    30   17   38 1
    31   17   18 ar
    32   18   19 ar
    33   18   26 1
    34   19   20 ar
    35   20   25 ar
    36   20   21 ar
    37   21   22 ar
    38   22   23 ar
    39   22   39 1
    40   23   24 ar
    41   23   40 1
    42   24   25 ar
    43   24   41 1
    44   25   42 1
    45   26   43 1
@<TRIPOS>MOLECULE
ZINC03903596
   43    45     0     0     0
SMALL
USER_CHARGES

@<TRIPOS>ATOM
      1 C1          6.7071    2.2814    5.7603 C.3       1 <0>        -0.1751
      2 C2          7.0713    1.9209    4.3431 C.ar      1 <0>        -0.0621
      3 C3          6.4160    2.5283    3.2861 C.ar      1 <0>        -0.1554
      4 C4          6.7512    2.1931    1.9865 C.ar      1 <0>         0.0691
      5 C5          7.7362    1.2347    1.7406 C.ar      1 <0>         0.0048
      6 C6          8.3952    0.6413    2.8047 C.ar      1 <0>        -0.1339
      7 C7          8.0587    0.9840    4.1020 C.ar      1 <0>        -0.0878
      8 C8          8.7727    0.3329    5.2584 C.3       1 <0>        -0.1719
      9 N1          8.0604    0.8966    0.4218 N.am      1 <0>        -0.3023
     10 C9          7.3056    1.3244   -0.6065 C.2       1 <0>         0.2950
     11 O1          7.6698    1.1174   -1.7448 O.2       1 <0>        -0.3550
     12 C10         6.0116    2.0578   -0.3592 C.3       1 <0>         0.0543
     13 H1          5.8183    2.7444   -1.1834 H         1 <0>         0.1471
     14 N2          6.1207    2.8147    0.8965 N.pl3     1 <0>        -0.3806
     15 C11         4.8647    1.0507   -0.2520 C.3       1 <0>        -0.2097
     16 C12         3.5577    1.7897   -0.1231 C.2       1 <0>         0.3128
     17 O2          3.5448    3.0026   -0.1174 O.2       1 <0>        -0.3601
     18 N3          2.4032    1.1030   -0.0140 N.am      1 <0>        -0.3259
     19 C13         1.1799    1.7861   -0.0054 C.ar      1 <0>         0.0524
     20 C14         0.1185    1.3004    0.7466 C.ar      1 <0>        -0.1481
     21 C15        -1.0883    1.9715    0.7508 C.ar      1 <0>        -0.1368
     22 C16        -1.2372    3.1364    0.0123 C.ar      1 <0>         0.0545
     23 C17        -0.1771    3.6221   -0.7392 C.ar      1 <0>        -0.1357
     24 C18         1.0286    2.9491   -0.7485 C.ar      1 <0>        -0.1142
     25 O3         -2.4242    3.7995    0.0210 O.3       1 <0>        -0.2902
     26 H2          7.3255    3.1148    6.0936 H         1 <0>         0.0878
     27 H3          5.6565    2.5685    5.8036 H         1 <0>         0.0821
     28 H4          6.8758    1.4217    6.4087 H         1 <0>         0.0850
     29 H5          5.6462    3.2619    3.4753 H         1 <0>         0.1428
     30 H6          9.1709   -0.0876    2.6219 H         1 <0>         0.1340
     31 H7          9.6500    0.9233    5.5227 H         1 <0>         0.0861
     32 H8          8.1009    0.2768    6.1150 H         1 <0>         0.0852
     33 H9          9.0835   -0.6724    4.9740 H         1 <0>         0.0784
     34 H10         8.8397    0.3462    0.2467 H         1 <0>         0.2439
     35 H11         5.7683    3.7155    0.9684 H         1 <0>         0.2556
     36 H12         5.0145    0.4215    0.6253 H         1 <0>         0.1173
     37 H13         4.8433    0.4280   -1.1464 H         1 <0>         0.1192
     38 H14         2.4192    0.1358    0.0585 H         1 <0>         0.2333
     39 H15         0.2354    0.3956    1.3245 H         1 <0>         0.1322
     40 H16        -1.9152    1.5917    1.3325 H         1 <0>         0.1414
     41 H17        -0.2948    4.5270   -1.3169 H         1 <0>         0.1446
     42 H18         1.8537    3.3272   -1.3339 H         1 <0>         0.1615
     43 H19        -3.0393    3.5139   -0.6683 H         1 <0>         0.2244
@<TRIPOS>BOND
     1    1    2 1
     2    1   26 1
     3    1   27 1
     4    1   28 1
     5    2    7 ar
     6    2    3 ar
     7    3    4 ar
     8    3   29 1
     9    4   14 1
    10    4    5 ar
    11    5    6 ar
    12    5    9 1
    13    6    7 ar
    14    6   30 1
    15    7    8 1
    16    8   31 1
    17    8   32 1
    18    8   33 1
    19    9   10 am
    20    9   34 1
    21   10   11 2
    22   10   12 1
    23   12   13 1
    24   12   14 1
    25   12   15 1
    26   14   35 1
    27   15   16 1
    28   15   36 1
    29   15   37 1
    30   16   17 2
    31   16   18 am
    32   18   19 1
    33   18   38 1
    34   19   24 ar
    35   19   20 ar
    36   20   21 ar
    37   20   39 1
    38   21   22 ar
    39   21   40 1
    40   22   23 ar
    41   22   25 1
    42   23   24 ar
    43   23   41 1
    44   24   42 1
    45   25   43 1
@<TRIPOS>MOLECULE
ZINC03903795
   40    42     0     0     0
SMALL
USER_CHARGES

@<TRIPOS>ATOM
      1 C1          4.7466   10.1475   -7.5163 C.3       1 <0>        -0.2540
      2 C2          4.3844    9.9139   -6.0723 C.2       1 <0>         0.2679
      3 O1          4.2532   10.8562   -5.3199 O.2       1 <0>        -0.2917
      4 C3          4.1903    8.5455   -5.5761 C.ar      1 <0>        -0.1788
      5 C4          3.8536    8.3261   -4.2344 C.ar      1 <0>        -0.0479
      6 C5          3.6738    7.0469   -3.7755 C.ar      1 <0>        -0.1448
      7 C6          3.8258    5.9669   -4.6407 C.ar      1 <0>         0.0913
      8 C7          4.1656    6.1800   -5.9738 C.ar      1 <0>        -0.1784
      9 C8          4.3417    7.4560   -6.4429 C.ar      1 <0>        -0.0728
     10 N1          3.6430    4.6686   -4.1696 N.am      1 <0>        -0.3261
     11 C9          3.9857    4.3564   -2.9040 C.2       1 <0>         0.3055
     12 O2          4.5407    5.1782   -2.2058 O.2       1 <0>        -0.3321
     13 C10         3.6791    2.9863   -2.3565 C.3       1 <0>        -0.1837
     14 C11         4.1682    2.8940   -0.9098 C.3       1 <0>        -0.2208
     15 H1          5.2285    3.1428   -0.8637 H         1 <0>         0.1824
     16 C12         3.9519    1.4966   -0.3892 C.2       1 <0>         0.3064
     17 O3          4.8896    0.7271   -0.3936 O.2       1 <0>        -0.3411
     18 N2          2.7830    1.0670    0.0745 N.am      1 <0>        -0.3023
     19 C13         1.6325    1.8270    0.2619 C.ar      1 <0>         0.0631
     20 C14         0.4102    1.1845    0.4275 C.ar      1 <0>        -0.1614
     21 C15        -0.7438    1.9184    0.6167 C.ar      1 <0>        -0.0973
     22 C16        -0.6972    3.3002    0.6541 C.ar      1 <0>        -0.1435
     23 C17         0.5115    3.9529    0.4961 C.ar      1 <0>        -0.0724
     24 C18         1.6721    3.2211    0.3065 C.ar      1 <0>        -0.2530
     25 S1          3.2225    4.0477    0.1313 S.3       1 <0>         0.2243
     26 H2          3.9116   10.2487   -8.0572 H         1 <0>         0.0978
     27 H3          5.3450   11.0548   -7.5986 H         1 <0>         0.1072
     28 H4          5.3203    9.2989   -7.8889 H         1 <0>         0.0883
     29 H5          3.7362    9.1633   -3.5623 H         1 <0>         0.1582
     30 H6          3.4142    6.8767   -2.7410 H         1 <0>         0.1669
     31 H7          4.2868    5.3389   -6.6404 H         1 <0>         0.1320
     32 H8          4.6009    7.6206   -7.4783 H         1 <0>         0.1360
     33 H9          3.2691    3.9893   -4.7524 H         1 <0>         0.2341
     34 H10         4.1849    2.2324   -2.9598 H         1 <0>         0.1195
     35 H11         2.6031    2.8148   -2.3879 H         1 <0>         0.1155
     36 H12         2.7261    0.1269    0.3066 H         1 <0>         0.2460
     37 H13         0.3629    0.1058    0.4036 H         1 <0>         0.1357
     38 H14        -1.6886    1.4100    0.7404 H         1 <0>         0.1365
     39 H15        -1.6037    3.8683    0.8023 H         1 <0>         0.1387
     40 H16         0.5507    5.0319    0.5210 H         1 <0>         0.1488
@<TRIPOS>BOND
     1    1    2 1
     2    1   26 1
     3    1   27 1
     4    1   28 1
     5    2    3 2
     6    2    4 1
     7    4    9 ar
     8    4    5 ar
     9    5    6 ar
    10    5   29 1
    11    6    7 ar
    12    6   30 1
    13    7    8 ar
    14    7   10 1
    15    8    9 ar
    16    8   31 1
    17    9   32 1
    18   10   11 am
    19   10   33 1
    20   11   12 2
    21   11   13 1
    22   13   14 1
    23   13   34 1
    24   13   35 1
    25   14   15 1
    26   14   25 1
    27   14   16 1
    28   16   17 2
    29   16   18 am
    30   18   19 1
    31   18   36 1
    32   19   24 ar
    33   19   20 ar
    34   20   21 ar
    35   20   37 1
    36   21   22 ar
    37   21   38 1
    38   22   23 ar
    39   22   39 1
    40   23   24 ar
    41   23   40 1
    42   24   25 1
@<TRIPOS>MOLECULE
ZINC03904475
   42    44     0     0     0
SMALL
USER_CHARGES

@<TRIPOS>ATOM
      1 C1         -2.7739    4.6442    4.8025 C.3       1 <0>        -0.1742
      2 C2         -2.0105    3.3452    4.7688 C.ar      1 <0>        -0.0587
      3 C3         -1.9549    2.5473    5.8971 C.ar      1 <0>        -0.1422
      4 C4         -1.2560    1.3546    5.8702 C.ar      1 <0>        -0.1098
      5 C5         -0.6105    0.9566    4.7157 C.ar      1 <0>        -0.1648
      6 C6         -0.6644    1.7554    3.5813 C.ar      1 <0>         0.0619
      7 C7         -1.3630    2.9555    3.6131 C.ar      1 <0>        -0.1235
      8 N1         -0.0117    1.3550    2.4102 N.am      1 <0>        -0.3249
      9 C8         -0.5532    1.6338    1.2079 C.2       1 <0>         0.2863
     10 O1         -1.5662    2.2971    1.1381 O.2       1 <0>        -0.3358
     11 C9          0.1000    1.1213   -0.0498 C.3       1 <0>        -0.0152
     12 N2         -0.6747    1.5563   -1.2146 N.am      1 <0>        -0.3090
     13 C10        -1.6875    0.8642   -1.7742 C.2       1 <0>         0.3472
     14 O2         -2.1204   -0.2161   -1.4154 O.2       1 <0>        -0.2733
     15 C11        -2.1650    1.6739   -2.9002 C.2       1 <0>        -0.0684
     16 C12        -3.1808    1.3786   -3.7595 C.2       1 <0>        -0.0420
     17 C13        -3.8196    0.1187   -3.6928 C.2       1 <0>        -0.0575
     18 C14        -4.7861   -0.3503   -4.5598 C.2       1 <0>        -0.1698
     19 C15        -5.1308   -1.6361   -4.1155 C.2       1 <0>        -0.2336
     20 C16        -4.3803   -1.8960   -3.0222 C.2       1 <0>        -0.0240
     21 O3         -3.5892   -0.8422   -2.7739 O.3       1 <0>         0.0052
     22 C17        -4.4216   -3.1681   -2.2152 C.3       1 <0>        -0.1370
     23 N3         -1.3491    2.8140   -2.9067 N.am      1 <0>        -0.3200
     24 C18        -0.4788    2.7006   -1.8877 C.2       1 <0>         0.4131
     25 O4          0.3724    3.5247   -1.6132 O.2       1 <0>        -0.3617
     26 H1         -2.1085    5.4486    5.1161 H         1 <0>         0.0849
     27 H2         -3.1640    4.8621    3.8083 H         1 <0>         0.0894
     28 H3         -3.6012    4.5613    5.5073 H         1 <0>         0.0805
     29 H4         -2.4582    2.8566    6.8012 H         1 <0>         0.1297
     30 H5         -1.2145    0.7337    6.7529 H         1 <0>         0.1301
     31 H6         -0.0647    0.0248    4.6953 H         1 <0>         0.1269
     32 H7         -1.4030    3.5811    2.7337 H         1 <0>         0.1660
     33 H8          0.8306    0.8768    2.4636 H         1 <0>         0.2307
     34 H9          0.1354    0.0322   -0.0231 H         1 <0>         0.1295
     35 H10         1.1136    1.5161   -0.1196 H         1 <0>         0.1313
     36 H11        -3.4978    2.1068   -4.4914 H         1 <0>         0.1594
     37 H12        -5.1963    0.1700   -5.4127 H         1 <0>         0.1546
     38 H13        -5.8595   -2.2951   -4.5640 H         1 <0>         0.1559
     39 H14        -3.6996   -3.8779   -2.6188 H         1 <0>         0.0942
     40 H15        -4.1732   -2.9479   -1.1770 H         1 <0>         0.1016
     41 H16        -5.4217   -3.5984   -2.2662 H         1 <0>         0.0952
     42 H17        -1.4028    3.5523   -3.5336 H         1 <0>         0.2716
@<TRIPOS>BOND
     1    1    2 1
     2    1   26 1
     3    1   27 1
     4    1   28 1
     5    2    7 ar
     6    2    3 ar
     7    3    4 ar
     8    3   29 1
     9    4    5 ar
    10    4   30 1
    11    5    6 ar
    12    5   31 1
    13    6    7 ar
    14    6    8 1
    15    7   32 1
    16    8    9 am
    17    8   33 1
    18    9   10 2
    19    9   11 1
    20   11   12 1
    21   11   34 1
    22   11   35 1
    23   12   24 am
    24   12   13 am
    25   13   14 2
    26   13   15 1
    27   15   16 2
    28   15   23 1
    29   16   17 1
    30   16   36 1
    31   17   21 1
    32   17   18 2
    33   18   19 1
    34   18   37 1
    35   19   20 2
    36   19   38 1
    37   20   21 1
    38   20   22 1
    39   22   39 1
    40   22   40 1
    41   22   41 1
    42   23   24 am
    43   23   42 1
    44   24   25 2
@<TRIPOS>MOLECULE
ZINC03905171
   41    43     0     0     0
SMALL
USER_CHARGES

@<TRIPOS>ATOM
      1 C1          4.2728    1.7488    2.1123 C.3       1 <0>        -0.1730
      2 C2          2.9267    1.1796    1.7450 C.ar      1 <0>        -0.0869
      3 C3          1.7726    1.8550    2.0972 C.ar      1 <0>        -0.1114
      4 C4          0.5374    1.3360    1.7621 C.ar      1 <0>        -0.1169
      5 C5          0.4551    0.1343    1.0710 C.ar      1 <0>         0.0543
      6 C6          1.6158   -0.5444    0.7237 C.ar      1 <0>        -0.1527
      7 C7          2.8482   -0.0172    1.0568 C.ar      1 <0>        -0.1127
      8 N1         -0.7948   -0.3944    0.7303 N.am      1 <0>        -0.3259
      9 C8         -1.7942    0.4276    0.3535 C.2       1 <0>         0.2855
     10 O1         -1.5861    1.6153    0.2234 O.2       1 <0>        -0.3339
     11 C9         -3.1704   -0.1291    0.0939 C.3       1 <0>        -0.0168
     12 N2         -4.0708    0.9578   -0.2987 N.am      1 <0>        -0.3074
     13 C10        -4.2817    1.3703   -1.5650 C.2       1 <0>         0.3544
     14 O2         -3.7729    0.9208   -2.5748 O.2       1 <0>        -0.2944
     15 C11        -5.2530    2.4743   -1.4794 C.2       1 <0>        -0.0537
     16 C12        -5.7660    3.2010   -2.5020 C.2       1 <0>        -0.0783
     17 C13        -6.8647    4.1460   -2.2538 C.ar      1 <0>        -0.1143
     18 C14        -7.7011    3.9915   -1.1375 C.ar      1 <0>        -0.1058
     19 C15        -8.7159    4.9113   -0.9476 C.ar      1 <0>        -0.1827
     20 C16        -8.8803    5.9381   -1.8610 C.ar      1 <0>        -0.0371
     21 N3         -8.0827    6.0570   -2.9053 N.ar      1 <0>        -0.1569
     22 C17        -7.0986    5.2117   -3.1291 C.ar      1 <0>        -0.0224
     23 N4         -5.5325    2.6117   -0.1137 N.am      1 <0>        -0.3293
     24 C18        -4.8133    1.6878    0.5475 C.2       1 <0>         0.4103
     25 O3         -4.8307    1.5364    1.7540 O.2       1 <0>        -0.3565
     26 H1          4.5703    1.3750    3.0921 H         1 <0>         0.0845
     27 H2          5.0103    1.4464    1.3688 H         1 <0>         0.0808
     28 H3          4.2115    2.8367    2.1418 H         1 <0>         0.0827
     29 H4          1.8372    2.7896    2.6347 H         1 <0>         0.1354
     30 H5         -0.3636    1.8640    2.0375 H         1 <0>         0.1568
     31 H6          1.5551   -1.4812    0.1898 H         1 <0>         0.1286
     32 H7          3.7513   -0.5424    0.7831 H         1 <0>         0.1320
     33 H8         -0.9408   -1.3529    0.7615 H         1 <0>         0.2304
     34 H9         -3.1190   -0.8659   -0.7077 H         1 <0>         0.1289
     35 H10        -3.5472   -0.6038    0.9999 H         1 <0>         0.1339
     36 H11        -5.3676    3.0859   -3.4993 H         1 <0>         0.1705
     37 H12        -7.5535    3.1779   -0.4428 H         1 <0>         0.1440
     38 H13        -9.3765    4.8267   -0.0974 H         1 <0>         0.1430
     39 H14        -9.6751    6.6548   -1.7161 H         1 <0>         0.1641
     40 H15        -6.4670    5.3419   -3.9955 H         1 <0>         0.1682
     41 H16        -6.1396    3.2555    0.2836 H         1 <0>         0.2806
@<TRIPOS>BOND
     1    1    2 1
     2    1   26 1
     3    1   27 1
     4    1   28 1
     5    2    7 ar
     6    2    3 ar
     7    3    4 ar
     8    3   29 1
     9    4    5 ar
    10    4   30 1
    11    5    6 ar
    12    5    8 1
    13    6    7 ar
    14    6   31 1
    15    7   32 1
    16    8    9 am
    17    8   33 1
    18    9   10 2
    19    9   11 1
    20   11   12 1
    21   11   34 1
    22   11   35 1
    23   12   24 am
    24   12   13 am
    25   13   14 2
    26   13   15 1
    27   15   16 2
    28   15   23 1
    29   16   17 1
    30   16   36 1
    31   17   22 ar
    32   17   18 ar
    33   18   19 ar
    34   18   37 1
    35   19   20 ar
    36   19   38 1
    37   20   21 ar
    38   20   39 1
    39   21   22 ar
    40   22   40 1
    41   23   24 am
    42   23   41 1
    43   24   25 2
@<TRIPOS>MOLECULE
ZINC03906387
   42    44     0     0     0
SMALL
USER_CHARGES

@<TRIPOS>ATOM
      1 C1          5.9686   -1.8258   -2.9483 C.3       1 <0>        -0.2316
      2 C2          5.4768   -1.6947   -1.5054 C.3       1 <0>         0.0457
      3 H1          6.2108   -1.1408   -0.9202 H         1 <0>         0.0920
      4 C3          4.1416   -0.9479   -1.4876 C.3       1 <0>        -0.1664
      5 C4          3.7112   -0.7071   -0.0392 C.3       1 <0>        -0.1222
      6 C5          2.3960    0.0285   -0.0217 C.ar      1 <0>        -0.0781
      7 C6          1.2084   -0.6789   -0.0136 C.ar      1 <0>        -0.1244
      8 C7          0.0021   -0.0041    0.0020 C.ar      1 <0>        -0.1234
      9 C8         -0.0167    1.3781    0.0096 C.ar      1 <0>        -0.1286
     10 C9          1.1709    2.0855    0.0021 C.ar      1 <0>        -0.1241
     11 C10         2.3773    1.4107   -0.0141 C.ar      1 <0>        -0.1255
     12 N1          5.2977   -3.0289   -0.9274 N.pl3     1 <0>        -0.8775
     13 S1          6.5120   -3.7139   -0.0337 S.o2      1 <0>         2.7636
     14 O1          6.0311   -4.9773    0.4040 O.2       1 <0>        -0.9130
     15 O2          7.7043   -3.5743   -0.7941 O.2       1 <0>        -0.9102
     16 C11         6.7171   -2.7254    1.4104 C.ar      1 <0>        -0.7770
     17 C12         7.6050   -1.6629    1.4129 C.ar      1 <0>        -0.0044
     18 C13         7.7747   -0.8779    2.5282 C.ar      1 <0>        -0.1655
     19 C14         7.0578   -1.1368    3.7083 C.ar      1 <0>         0.0851
     20 C15         6.1707   -2.2228    3.6754 C.ar      1 <0>        -0.2652
     21 C16         5.9971   -3.0042    2.5592 C.ar      1 <0>         0.0481
     22 S2          5.4733   -2.2246    5.3093 S.3       1 <0>         0.2318
     23 C17         6.3639   -0.8191    5.9567 C.2       1 <0>         0.2166
     24 O3          6.3026   -0.3233    7.0666 O.2       1 <0>        -0.2699
     25 N2          7.1211   -0.4456    4.9065 N.am      1 <0>        -0.3091
     26 H2          7.7165    0.3155    4.9906 H         1 <0>         0.2428
     27 H3          5.2346   -2.3798   -3.5334 H         1 <0>         0.0821
     28 H4          6.1018   -0.8331   -3.3783 H         1 <0>         0.0809
     29 H5          6.9198   -2.3579   -2.9610 H         1 <0>         0.1031
     30 H6          3.3848   -1.5443   -1.9971 H         1 <0>         0.0942
     31 H7          4.2537    0.0092   -1.9971 H         1 <0>         0.0978
     32 H8          4.4679   -0.1107    0.4703 H         1 <0>         0.0873
     33 H9          3.5990   -1.6641    0.4703 H         1 <0>         0.0890
     34 H10         1.2231   -1.7587   -0.0199 H         1 <0>         0.1287
     35 H11        -0.9258   -0.5567    0.0079 H         1 <0>         0.1305
     36 H12        -0.9592    1.9054    0.0170 H         1 <0>         0.1300
     37 H13         1.1563    3.1654    0.0077 H         1 <0>         0.1298
     38 H14         3.3051    1.9634   -0.0207 H         1 <0>         0.1277
     39 H15         4.4680   -3.5111   -1.0682 H         1 <0>         0.2467
     40 H16         8.1719   -1.4444    0.5201 H         1 <0>         0.1565
     41 H17         8.4719   -0.0536    2.4984 H         1 <0>         0.1411
     42 H18         5.3026   -3.8311    2.5777 H         1 <0>         0.1651
@<TRIPOS>BOND
     1    1    2 1
     2    1   27 1
     3    1   28 1
     4    1   29 1
     5    2    3 1
     6    2    4 1
     7    2   12 1
     8    4    5 1
     9    4   30 1
    10    4   31 1
    11    5    6 1
    12    5   32 1
    13    5   33 1
    14    6   11 ar
    15    6    7 ar
    16    7    8 ar
    17    7   34 1
    18    8    9 ar
    19    8   35 1
    20    9   10 ar
    21    9   36 1
    22   10   11 ar
    23   10   37 1
    24   11   38 1
    25   12   13 1
    26   12   39 1
    27   13   14 2
    28   13   15 2
    29   13   16 1
    30   16   21 ar
    31   16   17 ar
    32   17   18 ar
    33   17   40 1
    34   18   19 ar
    35   18   41 1
    36   19   25 1
    37   19   20 ar
    38   20   21 ar
    39   20   22 1
    40   21   42 1
    41   22   23 1
    42   23   24 2
    43   23   25 am
    44   25   26 1
@<TRIPOS>MOLECULE
ZINC03906393
   40    42     0     0     0
SMALL
USER_CHARGES

@<TRIPOS>ATOM
      1 C1          2.3407   -4.1875   -0.0419 C.3       1 <0>        -0.2118
      2 C2          2.5176   -2.6678   -0.0360 C.3       1 <0>        -0.0166
      3 O1          1.2345   -2.0389   -0.0203 O.3       1 <0>        -0.2119
      4 C3          1.2134   -0.6801   -0.0132 C.ar      1 <0>         0.1105
      5 C4          0.0021   -0.0041    0.0020 C.ar      1 <0>        -0.1622
      6 C5         -0.0167    1.3772    0.0096 C.ar      1 <0>        -0.0781
      7 C6          1.1705    2.0859    0.0021 C.ar      1 <0>        -0.1455
      8 C7          2.3791    1.4145   -0.0132 C.ar      1 <0>        -0.0668
      9 C8          2.4032    0.0333   -0.0208 C.ar      1 <0>        -0.2241
     10 C9          1.1472    3.5927    0.0105 C.3       1 <0>         0.0415
     11 N1          1.1528    4.0735    1.3943 N.pl3     1 <0>        -0.8792
     12 S1          1.5024    5.6594    1.7184 S.o2      1 <0>         2.7628
     13 O2          1.4020    5.8178    3.1270 O.2       1 <0>        -0.9114
     14 O3          2.6886    5.9689    0.9997 O.2       1 <0>        -0.9119
     15 C10         0.2157    6.6320    1.0093 C.ar      1 <0>        -0.7769
     16 C11         0.3226    7.0965   -0.2906 C.ar      1 <0>        -0.0027
     17 C12        -0.6729    7.8522   -0.8622 C.ar      1 <0>        -0.1652
     18 C13        -1.8295    8.1874   -0.1386 C.ar      1 <0>         0.0847
     19 C14        -1.9054    7.7065    1.1768 C.ar      1 <0>        -0.2659
     20 C15        -0.9129    6.9467    1.7464 C.ar      1 <0>         0.0486
     21 S2         -3.4720    8.3237    1.7432 S.3       1 <0>         0.2301
     22 C16        -3.9536    9.1750    0.2494 C.2       1 <0>         0.2165
     23 O4         -4.9687    9.8087    0.0269 O.2       1 <0>        -0.2704
     24 N2         -2.9099    8.9388   -0.5694 N.am      1 <0>        -0.3091
     25 H1         -2.9155    9.2987   -1.4702 H         1 <0>         0.2428
     26 H2          1.7970   -4.4935    0.8519 H         1 <0>         0.0894
     27 H3          1.7796   -4.4845   -0.9280 H         1 <0>         0.0890
     28 H4          3.3194   -4.6672   -0.0539 H         1 <0>         0.0880
     29 H5          3.0613   -2.3618   -0.9298 H         1 <0>         0.0753
     30 H6          3.0787   -2.3708    0.8501 H         1 <0>         0.0758
     31 H7         -0.9255   -0.5572    0.0076 H         1 <0>         0.1467
     32 H8         -0.9595    1.9040    0.0169 H         1 <0>         0.1356
     33 H9          3.3051    1.9703   -0.0194 H         1 <0>         0.1388
     34 H10         3.3475   -0.4907   -0.0323 H         1 <0>         0.1390
     35 H11         2.0264    3.9726   -0.5098 H         1 <0>         0.1030
     36 H12         0.2468    3.9449   -0.4929 H         1 <0>         0.0770
     37 H13         0.9517    3.4630    2.1207 H         1 <0>         0.2513
     38 H14         1.2033    6.8568   -0.8679 H         1 <0>         0.1564
     39 H15        -0.5629    8.1963   -1.8800 H         1 <0>         0.1412
     40 H16        -1.0126    6.5966    2.7632 H         1 <0>         0.1654
@<TRIPOS>BOND
     1    1    2 1
     2    1   26 1
     3    1   27 1
     4    1   28 1
     5    2    3 1
     6    2   29 1
     7    2   30 1
     8    3    4 1
     9    4    9 ar
    10    4    5 ar
    11    5    6 ar
    12    5   31 1
    13    6    7 ar
    14    6   32 1
    15    7    8 ar
    16    7   10 1
    17    8    9 ar
    18    8   33 1
    19    9   34 1
    20   10   11 1
    21   10   35 1
    22   10   36 1
    23   11   12 1
    24   11   37 1
    25   12   13 2
    26   12   14 2
    27   12   15 1
    28   15   20 ar
    29   15   16 ar
    30   16   17 ar
    31   16   38 1
    32   17   18 ar
    33   17   39 1
    34   18   24 1
    35   18   19 ar
    36   19   20 ar
    37   19   21 1
    38   20   40 1
    39   21   22 1
    40   22   23 2
    41   22   24 am
    42   24   25 1
@<TRIPOS>MOLECULE
ZINC03906579
   42    44     0     0     0
SMALL
USER_CHARGES

@<TRIPOS>ATOM
      1 C1          7.1801    5.5493   -3.4795 C.3       1 <0>        -0.0622
      2 O1          6.8640    5.2482   -2.1188 O.3       1 <0>        -0.2755
      3 C2          7.7821    4.3488   -1.4941 C.3       1 <0>        -0.0355
      4 C3          7.3479    4.0993   -0.0484 C.3       1 <0>        -0.0045
      5 N1          6.0579    3.4050   -0.0389 N.am      1 <0>        -0.2982
      6 C4          4.9169    4.1276   -0.0237 C.2       1 <0>         0.3529
      7 O2          4.9486    5.3428   -0.0175 O.2       1 <0>        -0.3076
      8 C5          3.6303    3.4035   -0.0143 C.ar      1 <0>        -0.1646
      9 C6          2.4127    4.0803    0.0018 C.ar      1 <0>        -0.0357
     10 C7          1.2347    3.3665    0.0026 C.ar      1 <0>        -0.1545
     11 C8          1.2577    1.9688    0.0006 C.ar      1 <0>        -0.0636
     12 C9          2.4713    1.2854   -0.0146 C.ar      1 <0>        -0.1297
     13 C10         3.6595    1.9985   -0.0222 C.ar      1 <0>         0.0942
     14 N2          4.8898    1.3560   -0.0378 N.am      1 <0>        -0.3049
     15 H1          4.9262    0.3567   -0.0431 H         1 <0>         0.2758
     16 C11         6.0326    2.0631   -0.0458 C.2       1 <0>         0.4068
     17 O3          7.0890    1.4615   -0.0603 O.2       1 <0>        -0.3876
     18 C12        -0.0144    1.2110    0.0087 C.2       1 <0>         0.3435
     19 O4          0.0021   -0.0041    0.0020 O.2       1 <0>        -0.3631
     20 N3         -1.1906    1.8690    0.0179 N.am      1 <0>        -0.3850
     21 C13        -2.4493    1.1193    0.0197 C.3       1 <0>         0.0799
     22 C14        -3.6079    2.0829    0.0305 C.2       1 <0>        -0.0922
     23 C15        -4.2179    2.5919   -1.0550 C.2       1 <0>        -0.1909
     24 C16        -5.2437    3.4444   -0.5864 C.2       1 <0>        -0.2238
     25 C17        -5.1993    3.4055    0.7574 C.2       1 <0>        -0.0876
     26 O5         -4.2103    2.5747    1.1255 O.3       1 <0>        -0.0506
     27 H2          6.4366    6.2375   -3.8815 H         1 <0>         0.1020
     28 H3          8.1666    6.0102   -3.5299 H         1 <0>         0.0538
     29 H4          7.1783    4.6299   -4.0649 H         1 <0>         0.0535
     30 H5          8.7811    4.7848   -1.5034 H         1 <0>         0.0749
     31 H6          7.7928    3.4044   -2.0384 H         1 <0>         0.0787
     32 H7          7.2513    5.0525    0.4716 H         1 <0>         0.1278
     33 H8          8.0948    3.4851    0.4545 H         1 <0>         0.1264
     34 H9          2.3925    5.1601    0.0078 H         1 <0>         0.1640
     35 H10         0.2895    3.8888    0.0096 H         1 <0>         0.1361
     36 H11         2.4862    0.2055   -0.0202 H         1 <0>         0.1653
     37 H12        -1.2038    2.8389    0.0232 H         1 <0>         0.2326
     38 H13        -2.5027    0.4968   -0.8734 H         1 <0>         0.1169
     39 H14        -2.4943    0.4871    0.9065 H         1 <0>         0.1114
     40 H15        -3.9709    2.3887   -2.0866 H         1 <0>         0.1603
     41 H16        -5.9310    4.0173   -1.1913 H         1 <0>         0.1593
     42 H17        -5.8517    3.9464    1.4269 H         1 <0>         0.2013
@<TRIPOS>BOND
     1    1    2 1
     2    1   27 1
     3    1   28 1
     4    1   29 1
     5    2    3 1
     6    3    4 1
     7    3   30 1
     8    3   31 1
     9    4    5 1
    10    4   32 1
    11    4   33 1
    12    5   16 am
    13    5    6 am
    14    6    7 2
    15    6    8 1
    16    8   13 ar
    17    8    9 ar
    18    9   10 ar
    19    9   34 1
    20   10   11 ar
    21   10   35 1
    22   11   12 ar
    23   11   18 1
    24   12   13 ar
    25   12   36 1
    26   13   14 1
    27   14   15 1
    28   14   16 am
    29   16   17 2
    30   18   19 2
    31   18   20 am
    32   20   21 1
    33   20   37 1
    34   21   22 1
    35   21   38 1
    36   21   39 1
    37   22   26 1
    38   22   23 2
    39   23   24 1
    40   23   40 1
    41   24   25 2
    42   24   41 1
    43   25   26 1
    44   25   42 1
@<TRIPOS>MOLECULE
ZINC03906620
   42    44     0     0     0
SMALL
USER_CHARGES

@<TRIPOS>ATOM
      1 C1          0.9809   10.5868   -3.3950 C.3       1 <0>        -0.0622
      2 O1          1.0835   10.1481   -2.0389 O.3       1 <0>        -0.2754
      3 C2          2.3215   10.4867   -1.4106 C.3       1 <0>        -0.0355
      4 C3          2.3203    9.9706    0.0297 C.3       1 <0>        -0.0045
      5 N1          2.2765    8.5063    0.0237 N.am      1 <0>        -0.2981
      6 C4          1.0803    7.8794    0.0322 C.2       1 <0>         0.3529
      7 O2          0.0437    8.5144    0.0447 O.2       1 <0>        -0.3078
      8 C5          1.0639    6.4031    0.0254 C.ar      1 <0>        -0.1649
      9 C6         -0.1310    5.6870    0.0338 C.ar      1 <0>        -0.0357
     10 C7         -0.1019    4.3100    0.0203 C.ar      1 <0>        -0.1548
     11 C8          1.1200    3.6310    0.0109 C.ar      1 <0>        -0.0634
     12 C9          2.3186    4.3404    0.0032 C.ar      1 <0>        -0.1299
     13 C10         2.2953    5.7259    0.0104 C.ar      1 <0>         0.0941
     14 N2          3.4669    6.4702    0.0028 N.am      1 <0>        -0.3049
     15 H1          4.3505    6.0021   -0.0078 H         1 <0>         0.2758
     16 C11         3.4260    7.8135    0.0095 C.2       1 <0>         0.4068
     17 O3          4.4753    8.4276    0.0020 O.2       1 <0>        -0.3878
     18 C12         1.1401    2.1505    0.0027 C.2       1 <0>         0.3423
     19 O4          2.2006    1.5572   -0.0106 O.2       1 <0>        -0.3635
     20 N3         -0.0178    1.4608    0.0101 N.am      1 <0>        -0.3839
     21 C13         0.0021   -0.0041    0.0020 C.3       1 <0>         0.0820
     22 C14        -1.4117   -0.5257    0.0127 C.2       1 <0>        -0.3009
     23 C15        -2.2245   -0.8103   -1.0340 C.2       1 <0>        -0.1529
     24 C16        -3.4975   -1.2875   -0.7839 C.2       1 <0>        -0.1818
     25 C17        -3.8991   -1.4466    0.5009 C.2       1 <0>        -0.2953
     26 S1         -2.4534   -0.9217    1.4074 S.3       1 <0>         0.3343
     27 H2          1.0751   11.6721   -3.4340 H         1 <0>         0.0538
     28 H3          1.7763   10.1317   -3.9853 H         1 <0>         0.0535
     29 H4          0.0132   10.2913   -3.8003 H         1 <0>         0.1020
     30 H5          2.4435   11.5699   -1.4083 H         1 <0>         0.0749
     31 H6          3.1447   10.0296   -1.9597 H         1 <0>         0.0787
     32 H7          1.4466   10.3581    0.5538 H         1 <0>         0.1277
     33 H8          3.2257   10.3050    0.5363 H         1 <0>         0.1263
     34 H9         -1.0762    6.2094    0.0449 H         1 <0>         0.1639
     35 H10        -1.0269    3.7525    0.0217 H         1 <0>         0.1360
     36 H11         3.2613    3.8134   -0.0079 H         1 <0>         0.1653
     37 H12        -0.8643    1.9343    0.0167 H         1 <0>         0.2315
     38 H13         0.5123   -0.3556   -0.8948 H         1 <0>         0.1115
     39 H14         0.5293   -0.3651    0.8851 H         1 <0>         0.1084
     40 H15        -1.8817   -0.6690   -2.0484 H         1 <0>         0.1462
     41 H16        -4.1637   -1.5256   -1.5999 H         1 <0>         0.1458
     42 H17        -4.8476   -1.7992    0.8783 H         1 <0>         0.1896
@<TRIPOS>BOND
     1    1    2 1
     2    1   27 1
     3    1   28 1
     4    1   29 1
     5    2    3 1
     6    3    4 1
     7    3   30 1
     8    3   31 1
     9    4    5 1
    10    4   32 1
    11    4   33 1
    12    5   16 am
    13    5    6 am
    14    6    7 2
    15    6    8 1
    16    8   13 ar
    17    8    9 ar
    18    9   10 ar
    19    9   34 1
    20   10   11 ar
    21   10   35 1
    22   11   12 ar
    23   11   18 1
    24   12   13 ar
    25   12   36 1
    26   13   14 1
    27   14   15 1
    28   14   16 am
    29   16   17 2
    30   18   19 2
    31   18   20 am
    32   20   21 1
    33   20   37 1
    34   21   22 1
    35   21   38 1
    36   21   39 1
    37   22   26 1
    38   22   23 2
    39   23   24 1
    40   23   40 1
    41   24   25 2
    42   24   41 1
    43   25   26 1
    44   25   42 1
@<TRIPOS>MOLECULE
ZINC03906621
   42    44     0     0     0
SMALL
USER_CHARGES

@<TRIPOS>ATOM
      1 C1          5.1223    0.2941    3.2279 C.3       1 <0>        -0.0623
      2 O1          4.6779    0.4033    1.8741 O.3       1 <0>        -0.2761
      3 C2          5.4949    1.2472    1.0604 C.3       1 <0>        -0.0355
      4 C3          4.9283    1.2897   -0.3601 C.3       1 <0>        -0.0047
      5 N1          3.6099    1.9283   -0.3411 N.am      1 <0>        -0.2977
      6 C4          2.5082    1.1677   -0.1626 C.2       1 <0>         0.3524
      7 O2          2.5983   -0.0360   -0.0177 O.2       1 <0>        -0.3059
      8 C5          1.1918    1.8358   -0.1469 C.ar      1 <0>        -0.1624
      9 C6          0.0113    1.1182    0.0321 C.ar      1 <0>        -0.0348
     10 C7         -1.1891    1.7730    0.0344 C.ar      1 <0>        -0.1547
     11 C8         -1.2388    3.1604   -0.1303 C.ar      1 <0>        -0.0681
     12 C9         -0.0653    3.8896   -0.3103 C.ar      1 <0>        -0.1264
     13 C10         1.1536    3.2302   -0.3192 C.ar      1 <0>         0.0960
     14 N2          2.3478    3.9148   -0.4956 N.am      1 <0>        -0.3045
     15 H1          2.3359    4.9070   -0.6194 H         1 <0>         0.2766
     16 C11         3.5203    3.2577   -0.5018 C.2       1 <0>         0.4066
     17 O3          4.5436    3.8950   -0.6593 O.2       1 <0>        -0.3850
     18 C12        -2.5448    3.8571   -0.1200 C.2       1 <0>         0.3442
     19 O4         -2.5917    5.0625   -0.2684 O.2       1 <0>        -0.3418
     20 N3         -3.6819    3.1548    0.0538 N.am      1 <0>        -0.3205
     21 C13        -4.9046    3.8225    0.1742 C.ar      1 <0>         0.0881
     22 C14        -6.0662    3.2416   -0.3191 C.ar      1 <0>        -0.1769
     23 C15        -7.2728    3.9025   -0.1993 C.ar      1 <0>        -0.0845
     24 C16        -7.3269    5.1419    0.4114 C.ar      1 <0>        -0.1831
     25 C17        -6.1714    5.7244    0.9050 C.ar      1 <0>         0.1183
     26 C18        -4.9607    5.0645    0.7920 C.ar      1 <0>        -0.1695
     27 F1         -6.2275    6.9350    1.5021 F         1 <0>        -0.1012
     28 H2          5.1253    1.2813    3.6900 H         1 <0>         0.0537
     29 H3          4.4497   -0.3631    3.7792 H         1 <0>         0.1023
     30 H4          6.1307   -0.1192    3.2470 H         1 <0>         0.0543
     31 H5          6.5111    0.8537    1.0346 H         1 <0>         0.0756
     32 H6          5.5057    2.2542    1.4776 H         1 <0>         0.0788
     33 H7          4.8345    0.2740   -0.7444 H         1 <0>         0.1281
     34 H8          5.5992    1.8606   -1.0020 H         1 <0>         0.1268
     35 H9          0.0438    0.0468    0.1643 H         1 <0>         0.1647
     36 H10        -2.1043    1.2154    0.1684 H         1 <0>         0.1329
     37 H11        -0.1053    4.9608   -0.4422 H         1 <0>         0.1664
     38 H12        -3.6521    2.1861    0.0954 H         1 <0>         0.2382
     39 H13        -6.0257    2.2733   -0.7958 H         1 <0>         0.1336
     40 H14        -8.1756    3.4506   -0.5830 H         1 <0>         0.1389
     41 H15        -8.2719    5.6563    0.5040 H         1 <0>         0.1459
     42 H16        -4.0602    5.5164    1.1807 H         1 <0>         0.1729
@<TRIPOS>BOND
     1    1    2 1
     2    1   28 1
     3    1   29 1
     4    1   30 1
     5    2    3 1
     6    3    4 1
     7    3   31 1
     8    3   32 1
     9    4    5 1
    10    4   33 1
    11    4   34 1
    12    5   16 am
    13    5    6 am
    14    6    7 2
    15    6    8 1
    16    8   13 ar
    17    8    9 ar
    18    9   10 ar
    19    9   35 1
    20   10   11 ar
    21   10   36 1
    22   11   12 ar
    23   11   18 1
    24   12   13 ar
    25   12   37 1
    26   13   14 1
    27   14   15 1
    28   14   16 am
    29   16   17 2
    30   18   19 2
    31   18   20 am
    32   20   21 1
    33   20   38 1
    34   21   26 ar
    35   21   22 ar
    36   22   23 ar
    37   22   39 1
    38   23   24 ar
    39   23   40 1
    40   24   25 ar
    41   24   41 1
    42   25   26 ar
    43   25   27 1
    44   26   42 1
@<TRIPOS>MOLECULE
ZINC03907213
   41    43     0     0     0
SMALL
USER_CHARGES

@<TRIPOS>ATOM
      1 C1          0.6134    1.6758    8.5089 C.3       1 <0>        -0.1734
      2 C2          0.6932    0.9608    7.1848 C.ar      1 <0>        -0.0586
      3 C3          1.3736   -0.2394    7.0878 C.ar      1 <0>        -0.1452
      4 C4          1.4484   -0.8990    5.8749 C.ar      1 <0>        -0.1075
      5 C5          0.8393   -0.3631    4.7569 C.ar      1 <0>        -0.1313
      6 C6          0.1604    0.8445    4.8497 C.ar      1 <0>         0.0666
      7 C7          0.0867    1.5044    6.0697 C.ar      1 <0>        -0.1626
      8 N1         -0.4531    1.3927    3.7179 N.am      1 <0>        -0.3292
      9 C8          0.0969    1.2147    2.5004 C.2       1 <0>         0.3033
     10 O1          1.1717    0.6626    2.3954 O.2       1 <0>        -0.3488
     11 C9         -0.6235    1.7016    1.2696 C.3       1 <0>        -0.1850
     12 C10         0.2106    1.3773    0.0286 C.3       1 <0>        -0.1667
     13 C11        -0.5208    1.8717   -1.2210 C.3       1 <0>        -0.0058
     14 N2          0.2778    1.5611   -2.4092 N.am      1 <0>        -0.2935
     15 C12         0.1052    0.3829   -3.0499 C.2       1 <0>         0.3945
     16 O2         -0.7109   -0.4263   -2.6463 O.2       1 <0>        -0.3436
     17 C13         0.8778    0.1069   -4.1827 C.2       1 <0>        -0.4346
     18 C14         1.8205    1.0193   -4.6643 C.2       1 <0>         0.0762
     19 C15         2.5104    0.6026   -5.7991 C.2       1 <0>        -0.2224
     20 C16         2.2429   -0.6053   -6.3472 C.2       1 <0>        -0.3083
     21 S1          1.0059   -1.2498   -5.3165 S.3       1 <0>         0.5346
     22 N3          1.9395    2.2190   -3.9433 N.am      1 <0>        -0.2902
     23 H1          2.6005    2.9091   -4.2381 H         1 <0>         0.2704
     24 C17         1.1773    2.4499   -2.8645 C.2       1 <0>         0.4084
     25 O3          1.3082    3.5036   -2.2718 O.2       1 <0>        -0.3849
     26 H2         -0.2707    1.3396    9.0506 H         1 <0>         0.0846
     27 H3          1.5049    1.4547    9.0956 H         1 <0>         0.0830
     28 H4          0.5481    2.7504    8.3382 H         1 <0>         0.0806
     29 H5          1.8471   -0.6625    7.9613 H         1 <0>         0.1290
     30 H6          1.9801   -1.8363    5.8025 H         1 <0>         0.1329
     31 H7          0.8943   -0.8810    3.8108 H         1 <0>         0.1587
     32 H8         -0.4441    2.4419    6.1460 H         1 <0>         0.1283
     33 H9         -1.2742    1.9009    3.8095 H         1 <0>         0.2307
     34 H10        -0.7703    2.7796    1.3371 H         1 <0>         0.1027
     35 H11        -1.5920    1.2070    1.1959 H         1 <0>         0.1037
     36 H12         0.3574    0.2994   -0.0389 H         1 <0>         0.1123
     37 H13         1.1791    1.8720    0.1023 H         1 <0>         0.1138
     38 H14        -1.4893    1.3770   -1.2947 H         1 <0>         0.1149
     39 H15        -0.6677    2.9496   -1.1534 H         1 <0>         0.1155
     40 H16         3.2591    1.2428   -6.2418 H         1 <0>         0.1496
     41 H17         2.6918   -1.0591   -7.2184 H         1 <0>         0.1976
@<TRIPOS>BOND
     1    1    2 1
     2    1   26 1
     3    1   27 1
     4    1   28 1
     5    2    7 ar
     6    2    3 ar
     7    3    4 ar
     8    3   29 1
     9    4    5 ar
    10    4   30 1
    11    5    6 ar
    12    5   31 1
    13    6    7 ar
    14    6    8 1
    15    7   32 1
    16    8    9 am
    17    8   33 1
    18    9   10 2
    19    9   11 1
    20   11   12 1
    21   11   34 1
    22   11   35 1
    23   12   13 1
    24   12   36 1
    25   12   37 1
    26   13   14 1
    27   13   38 1
    28   13   39 1
    29   14   24 am
    30   14   15 am
    31   15   16 2
    32   15   17 1
    33   17   21 1
    34   17   18 2
    35   18   19 1
    36   18   22 1
    37   19   20 2
    38   19   40 1
    39   20   21 1
    40   20   41 1
    41   22   23 1
    42   22   24 am
    43   24   25 2
@<TRIPOS>MOLECULE
ZINC03907399
   42    44     0     0     0
SMALL
USER_CHARGES

@<TRIPOS>ATOM
      1 C1          2.0548   -0.0833   -1.4338 C.3       1 <0>        -0.2363
      2 C2          0.7022    0.5349   -1.1899 C.2       1 <0>         0.3011
      3 O1         -0.1585    0.4662   -2.0418 O.2       1 <0>        -0.3581
      4 N1          0.4489    1.1640   -0.0252 N.am      1 <0>        -0.3277
      5 C3         -0.7755    1.8169    0.1662 C.ar      1 <0>         0.0457
      6 C4         -0.8297    2.9855    0.9145 C.ar      1 <0>        -0.1457
      7 C5         -2.0355    3.6320    1.0985 C.ar      1 <0>        -0.1088
      8 C6         -3.1961    3.1073    0.5452 C.ar      1 <0>         0.0389
      9 C7         -3.1428    1.9356   -0.1983 C.ar      1 <0>        -0.1435
     10 C8         -1.9361    1.2925   -0.3874 C.ar      1 <0>        -0.1106
     11 N2         -4.4205    3.7602    0.7367 N.am      1 <0>        -0.3222
     12 C9         -4.4659    5.1063    0.7862 C.2       1 <0>         0.3068
     13 O2         -3.4383    5.7496    0.7492 O.2       1 <0>        -0.3603
     14 C10        -5.7935    5.8122    0.8876 C.3       1 <0>        -0.2163
     15 C11        -5.5653    7.3246    0.9271 C.3       1 <0>         0.0297
     16 N3         -6.8558    8.0108    1.0256 N.am      1 <0>        -0.2879
     17 C12        -7.6446    8.4411   -0.0409 C.ar      1 <0>        -0.0200
     18 C13        -7.5001    8.3776   -1.4180 C.ar      1 <0>        -0.1217
     19 C14        -8.4787    8.9067   -2.2367 C.ar      1 <0>        -0.1147
     20 C15        -9.6018    9.4988   -1.6856 C.ar      1 <0>        -0.1258
     21 C16        -9.7563    9.5591   -0.3143 C.ar      1 <0>        -0.0939
     22 C17        -8.7774    9.0349    0.5153 C.ar      1 <0>         0.0089
     23 O3         -8.6495    8.9620    1.8629 O.3       1 <0>        -0.1293
     24 C18        -7.4950    8.3468    2.1636 C.2       1 <0>         0.3916
     25 O4         -7.0888    8.1267    3.2884 O.2       1 <0>        -0.3266
     26 H1          2.6904    0.0783   -0.5631 H         1 <0>         0.0780
     27 H2          1.9395   -1.1534   -1.6059 H         1 <0>         0.1125
     28 H3          2.5128    0.3782   -2.3086 H         1 <0>         0.1156
     29 H4          1.1129    1.1613    0.6819 H         1 <0>         0.2319
     30 H5          0.0723    3.3911    1.3485 H         1 <0>         0.1340
     31 H6         -2.0768    4.5434    1.6764 H         1 <0>         0.1669
     32 H7         -4.0454    1.5278   -0.6289 H         1 <0>         0.1331
     33 H8         -1.8945    0.3816   -0.9662 H         1 <0>         0.1676
     34 H9         -5.2357    3.2435    0.8337 H         1 <0>         0.2335
     35 H10        -6.4063    5.5597    0.0222 H         1 <0>         0.1098
     36 H11        -6.3036    5.4978    1.7982 H         1 <0>         0.1209
     37 H12        -4.9525    7.5771    1.7924 H         1 <0>         0.1345
     38 H13        -5.0552    7.6389    0.0165 H         1 <0>         0.1157
     39 H14        -6.6243    7.9159   -1.8497 H         1 <0>         0.1400
     40 H15        -8.3674    8.8579   -3.3098 H         1 <0>         0.1411
     41 H16       -10.3639    9.9101   -2.3309 H         1 <0>         0.1430
     42 H17       -10.6335   10.0238    0.1111 H         1 <0>         0.1483
@<TRIPOS>BOND
     1    1    2 1
     2    1   26 1
     3    1   27 1
     4    1   28 1
     5    2    3 2
     6    2    4 am
     7    4    5 1
     8    4   29 1
     9    5   10 ar
    10    5    6 ar
    11    6    7 ar
    12    6   30 1
    13    7    8 ar
    14    7   31 1
    15    8    9 ar
    16    8   11 1
    17    9   10 ar
    18    9   32 1
    19   10   33 1
    20   11   12 am
    21   11   34 1
    22   12   13 2
    23   12   14 1
    24   14   15 1
    25   14   35 1
    26   14   36 1
    27   15   16 1
    28   15   37 1
    29   15   38 1
    30   16   24 am
    31   16   17 1
    32   17   22 ar
    33   17   18 ar
    34   18   19 ar
    35   18   39 1
    36   19   20 ar
    37   19   40 1
    38   20   21 ar
    39   20   41 1
    40   21   22 ar
    41   21   42 1
    42   22   23 1
    43   23   24 1
    44   24   25 2
@<TRIPOS>MOLECULE
ZINC03907498
   45    48     0     0     0
SMALL
USER_CHARGES

@<TRIPOS>ATOM
      1 C1         -1.2480   -1.7826   -0.0317 C.ar      1 <0>        -0.1051
      2 C2         -1.1186   -0.4150   -0.1653 C.ar      1 <0>        -0.1462
      3 C3          0.1077    0.1536   -0.4865 C.ar      1 <0>        -0.0444
      4 C4          1.2065   -0.6535   -0.6704 C.ar      1 <0>        -0.0875
      5 C5          1.0768   -2.0365   -0.5381 C.ar      1 <0>         0.0637
      6 C6         -0.1499   -2.5986   -0.2190 C.ar      1 <0>        -0.1887
      7 N1          2.1894   -2.8595   -0.7277 N.pl3     1 <0>        -0.8083
      8 S1          2.0084   -4.3471   -1.4324 S.o2      1 <0>         2.7662
      9 O1          3.3159   -4.8753   -1.6076 O.2       1 <0>        -0.9128
     10 O2          1.0046   -5.0278   -0.6919 O.2       1 <0>        -0.9135
     11 C7          1.3517   -4.0827   -3.0459 C.ar      1 <0>        -0.7853
     12 C8          2.2068   -3.9058   -4.1184 C.ar      1 <0>         0.0045
     13 C9          1.6958   -3.6987   -5.3846 C.ar      1 <0>        -0.1941
     14 C10         0.3212   -3.6685   -5.5798 C.ar      1 <0>         0.1337
     15 C11        -0.5344   -3.8467   -4.5009 C.ar      1 <0>        -0.1434
     16 C12        -0.0175   -4.0584   -3.2380 C.ar      1 <0>         0.0121
     17 C13        -2.0256   -3.8144   -4.7133 C.3       1 <0>        -0.1173
     18 C14        -2.3624   -2.8182   -5.8233 C.3       1 <0>        -0.1829
     19 C15        -1.4790   -3.0630   -7.0169 C.2       1 <0>         0.3090
     20 O3         -1.9224   -2.9006   -8.1341 O.2       1 <0>        -0.3428
     21 N2         -0.2028   -3.4597   -6.8591 N.am      1 <0>        -0.3153
     22 C16         2.5677   -0.1061   -1.0113 C.3       1 <0>        -0.1185
     23 C17         2.4553    1.3242   -1.5354 C.3       1 <0>        -0.1571
     24 C18         1.6175    2.1381   -0.5421 C.3       1 <0>        -0.1593
     25 C19         0.1715    1.6527   -0.6204 C.3       1 <0>        -0.1202
     26 H1         -2.2062   -2.2137    0.2184 H         1 <0>         0.1349
     27 H2         -1.9797    0.2200   -0.0181 H         1 <0>         0.1307
     28 H3         -0.2459   -3.6694   -0.1170 H         1 <0>         0.1812
     29 H4          3.0680   -2.5596   -0.4466 H         1 <0>         0.2542
     30 H5          3.2756   -3.9293   -3.9655 H         1 <0>         0.1532
     31 H6          2.3641   -3.5608   -6.2217 H         1 <0>         0.1422
     32 H7         -0.6829   -4.2009   -2.3993 H         1 <0>         0.1561
     33 H8         -2.3734   -4.8073   -4.9986 H         1 <0>         0.1040
     34 H9         -2.5175   -3.5088   -3.7898 H         1 <0>         0.1019
     35 H10        -3.4058   -2.9394   -6.1143 H         1 <0>         0.1259
     36 H11        -2.2052   -1.8031   -5.4587 H         1 <0>         0.1167
     37 H12         0.3574   -3.6015   -7.6382 H         1 <0>         0.2481
     38 H13         3.1922   -0.1135   -0.1180 H         1 <0>         0.0904
     39 H14         3.0263   -0.7334   -1.7756 H         1 <0>         0.0863
     40 H15         3.4495    1.7624   -1.6228 H         1 <0>         0.0833
     41 H16         1.9687    1.3207   -2.5108 H         1 <0>         0.0877
     42 H17         1.6644    3.1955   -0.8024 H         1 <0>         0.0835
     43 H18         2.0000    1.9908    0.4679 H         1 <0>         0.0885
     44 H19        -0.2547    1.9463   -1.5797 H         1 <0>         0.0930
     45 H20        -0.4052    2.1102    0.1834 H         1 <0>         0.0916
@<TRIPOS>BOND
     1    1    6 ar
     2    1    2 ar
     3    1   26 1
     4    2    3 ar
     5    2   27 1
     6    3   25 1
     7    3    4 ar
     8    4    5 ar
     9    4   22 1
    10    5    6 ar
    11    5    7 1
    12    6   28 1
    13    7    8 1
    14    7   29 1
    15    8    9 2
    16    8   10 2
    17    8   11 1
    18   11   16 ar
    19   11   12 ar
    20   12   13 ar
    21   12   30 1
    22   13   14 ar
    23   13   31 1
    24   14   21 1
    25   14   15 ar
    26   15   16 ar
    27   15   17 1
    28   16   32 1
    29   17   18 1
    30   17   33 1
    31   17   34 1
    32   18   19 1
    33   18   35 1
    34   18   36 1
    35   19   20 2
    36   19   21 am
    37   21   37 1
    38   22   23 1
    39   22   38 1
    40   22   39 1
    41   23   24 1
    42   23   40 1
    43   23   41 1
    44   24   25 1
    45   24   42 1
    46   24   43 1
    47   25   44 1
    48   25   45 1
@<TRIPOS>MOLECULE
ZINC03907499
   38    40     0     0     0
SMALL
USER_CHARGES

@<TRIPOS>ATOM
      1 C1         -0.1903   -2.0739   -1.1861 C.ar      1 <0>        -0.1270
      2 C2          0.0386   -2.7693   -0.0133 C.ar      1 <0>        -0.1113
      3 C3          0.2488   -2.0829    1.1676 C.ar      1 <0>        -0.1218
      4 C4          0.2307   -0.6993    1.1759 C.ar      1 <0>        -0.0415
      5 C5          0.0021   -0.0041    0.0020 C.ar      1 <0>        -0.0929
      6 C6         -0.2133   -0.6919   -1.1776 C.ar      1 <0>        -0.0994
      7 C7         -0.0184    1.5028    0.0103 C.3       1 <0>         0.0354
      8 N1          1.3560    2.0099   -0.0001 N.pl3     1 <0>        -0.8765
      9 S1          1.6499    3.5981   -0.3656 S.o2      1 <0>         2.7640
     10 O1          3.0552    3.7843   -0.2667 O.2       1 <0>        -0.9139
     11 O2          0.9256    3.8819   -1.5548 O.2       1 <0>        -0.9168
     12 C8          0.9220    4.5698    0.9114 C.ar      1 <0>        -0.7868
     13 C9          1.6618    4.9033    2.0313 C.ar      1 <0>         0.0062
     14 C10         1.0947    5.6648    3.0343 C.ar      1 <0>        -0.1929
     15 C11        -0.2202    6.0954    2.9167 C.ar      1 <0>         0.1316
     16 C12        -0.9601    5.7589    1.7910 C.ar      1 <0>        -0.1441
     17 C13        -0.3858    5.0019    0.7889 C.ar      1 <0>         0.0026
     18 C14        -2.3866    6.2266    1.6640 C.3       1 <0>        -0.1174
     19 C15        -3.0378    6.2624    3.0470 C.3       1 <0>        -0.1831
     20 C16        -2.1385    6.9782    4.0185 C.2       1 <0>         0.3091
     21 O3         -2.6253    7.6634    4.8929 O.2       1 <0>        -0.3426
     22 N2         -0.8004    6.8670    3.9282 N.am      1 <0>        -0.3153
     23 Cl1         0.4942    0.1637    2.6590 Cl        1 <0>        -0.0267
     24 H1         -0.3553   -2.6108   -2.1086 H         1 <0>         0.1385
     25 H2          0.0527   -3.8492   -0.0199 H         1 <0>         0.1393
     26 H3          0.4269   -2.6262    2.0838 H         1 <0>         0.1467
     27 H4         -0.3962   -0.1493   -2.0933 H         1 <0>         0.1450
     28 H5         -0.5455    1.8639   -0.8728 H         1 <0>         0.1046
     29 H6         -0.5286    1.8543    0.9071 H         1 <0>         0.0908
     30 H7          2.0939    1.4153    0.2071 H         1 <0>         0.2508
     31 H8          2.6843    4.5676    2.1218 H         1 <0>         0.1553
     32 H9          1.6728    5.9245    3.9087 H         1 <0>         0.1425
     33 H10        -0.9596    4.7439   -0.0889 H         1 <0>         0.1527
     34 H11        -2.4038    7.2256    1.2285 H         1 <0>         0.1049
     35 H12        -2.9378    5.5405    1.0209 H         1 <0>         0.0998
     36 H13        -3.9921    6.7853    2.9844 H         1 <0>         0.1261
     37 H14        -3.2071    5.2430    3.3940 H         1 <0>         0.1156
     38 H15        -0.2345    7.3249    4.5693 H         1 <0>         0.2484
@<TRIPOS>BOND
     1    1    6 ar
     2    1    2 ar
     3    1   24 1
     4    2    3 ar
     5    2   25 1
     6    3    4 ar
     7    3   26 1
     8    4    5 ar
     9    4   23 1
    10    5    6 ar
    11    5    7 1
    12    6   27 1
    13    7    8 1
    14    7   28 1
    15    7   29 1
    16    8    9 1
    17    8   30 1
    18    9   10 2
    19    9   11 2
    20    9   12 1
    21   12   17 ar
    22   12   13 ar
    23   13   14 ar
    24   13   31 1
    25   14   15 ar
    26   14   32 1
    27   15   22 1
    28   15   16 ar
    29   16   17 ar
    30   16   18 1
    31   17   33 1
    32   18   19 1
    33   18   34 1
    34   18   35 1
    35   19   20 1
    36   19   36 1
    37   19   37 1
    38   20   21 2
    39   20   22 am
    40   22   38 1
@<TRIPOS>MOLECULE
ZINC03907514
   41    43     0     0     0
SMALL
USER_CHARGES

@<TRIPOS>ATOM
      1 C1         -3.0148    4.4484   -1.3906 C.3       1 <0>        -0.2062
      2 C2         -2.5573    4.1913    0.0465 C.3       1 <0>        -0.1258
      3 C3         -1.2435    3.4530    0.0311 C.ar      1 <0>        -0.0588
      4 C4         -0.0544    4.1592    0.0240 C.ar      1 <0>        -0.1372
      5 C5          1.1531    3.4859    0.0093 C.ar      1 <0>        -0.1081
      6 C6          1.1755    2.1048    0.0021 C.ar      1 <0>        -0.1678
      7 C7         -0.0169    1.3925    0.0097 C.ar      1 <0>         0.0542
      8 C8         -1.2285    2.0723    0.0191 C.ar      1 <0>        -0.1436
      9 N1          0.0021   -0.0041    0.0020 N.pl3     1 <0>        -0.8130
     10 S1          1.0369   -0.8236    1.0019 S.o2      1 <0>         2.7656
     11 O1          0.8019   -2.2079    0.7832 O.2       1 <0>        -0.9127
     12 O2          2.3181   -0.2325    0.8331 O.2       1 <0>        -0.9144
     13 C9          0.5398   -0.4839    2.6578 C.ar      1 <0>        -0.7857
     14 C10        -0.3846   -1.3015    3.2822 C.ar      1 <0>         0.0039
     15 C11        -0.7768   -1.0383    4.5800 C.ar      1 <0>        -0.1941
     16 C12        -0.2413    0.0491    5.2577 C.ar      1 <0>         0.1331
     17 C13         0.6865    0.8678    4.6279 C.ar      1 <0>        -0.1437
     18 C14         1.0789    0.5964    3.3320 C.ar      1 <0>         0.0119
     19 C15         1.2671    2.0473    5.3638 C.3       1 <0>        -0.1174
     20 C16         0.2110    2.6362    6.2996 C.3       1 <0>        -0.1830
     21 C17        -0.4277    1.5385    7.1070 C.2       1 <0>         0.3090
     22 O3         -0.7604    1.7534    8.2534 O.2       1 <0>        -0.3428
     23 N2         -0.6336    0.3210    6.5719 N.am      1 <0>        -0.3154
     24 H1         -2.2666    5.0488   -1.9082 H         1 <0>         0.0787
     25 H2         -3.1386    3.4971   -1.9082 H         1 <0>         0.0773
     26 H3         -3.9649    4.9823   -1.3794 H         1 <0>         0.0749
     27 H4         -3.3054    3.5908    0.5641 H         1 <0>         0.0875
     28 H5         -2.4334    5.1425    0.5641 H         1 <0>         0.0887
     29 H6         -0.0690    5.2391    0.0295 H         1 <0>         0.1323
     30 H7          2.0799    4.0404    0.0031 H         1 <0>         0.1364
     31 H8          2.1190    1.5795   -0.0097 H         1 <0>         0.1799
     32 H9         -2.1574    1.5215    0.0208 H         1 <0>         0.1347
     33 H10        -0.5909   -0.4939   -0.5890 H         1 <0>         0.2535
     34 H11        -0.8006   -2.1467    2.7540 H         1 <0>         0.1533
     35 H12        -1.4984   -1.6773    5.0671 H         1 <0>         0.1422
     36 H13         1.8040    1.2303    2.8436 H         1 <0>         0.1563
     37 H14         2.1289    1.7230    5.9471 H         1 <0>         0.1041
     38 H15         1.5792    2.8056    4.6457 H         1 <0>         0.1020
     39 H16         0.6824    3.3529    6.9721 H         1 <0>         0.1259
     40 H17        -0.5528    3.1433    5.7100 H         1 <0>         0.1163
     41 H18        -1.0575   -0.3725    7.1014 H         1 <0>         0.2481
@<TRIPOS>BOND
     1    1    2 1
     2    1   24 1
     3    1   25 1
     4    1   26 1
     5    2    3 1
     6    2   27 1
     7    2   28 1
     8    3    8 ar
     9    3    4 ar
    10    4    5 ar
    11    4   29 1
    12    5    6 ar
    13    5   30 1
    14    6    7 ar
    15    6   31 1
    16    7    8 ar
    17    7    9 1
    18    8   32 1
    19    9   10 1
    20    9   33 1
    21   10   11 2
    22   10   12 2
    23   10   13 1
    24   13   18 ar
    25   13   14 ar
    26   14   15 ar
    27   14   34 1
    28   15   16 ar
    29   15   35 1
    30   16   23 1
    31   16   17 ar
    32   17   18 ar
    33   17   19 1
    34   18   36 1
    35   19   20 1
    36   19   37 1
    37   19   38 1
    38   20   21 1
    39   20   39 1
    40   20   40 1
    41   21   22 2
    42   21   23 am
    43   23   41 1
@<TRIPOS>MOLECULE
ZINC03907516
   45    48     0     0     0
SMALL
USER_CHARGES

@<TRIPOS>ATOM
      1 C1         -1.4820    1.5197   -1.2924 C.ar      1 <0>        -0.1191
      2 C2         -0.7384    2.6841   -1.3468 C.ar      1 <0>        -0.1320
      3 C3          0.5736    2.6794   -0.9213 C.ar      1 <0>        -0.1040
      4 C4          1.1549    1.5140   -0.4380 C.ar      1 <0>        -0.0925
      5 C5          0.4157    0.3538   -0.3874 C.ar      1 <0>        -0.0572
      6 C6         -0.9044    0.3597   -0.8200 C.ar      1 <0>        -0.1338
      7 C7          0.9821   -0.9472    0.1182 C.3       1 <0>        -0.1223
      8 C8          2.2513   -0.7005    0.9313 C.3       1 <0>        -0.1574
      9 C9          3.1926    0.1813    0.1022 C.3       1 <0>        -0.1757
     10 C10         2.5894    1.5819    0.0164 C.3       1 <0>         0.0937
     11 H1          2.6326    2.0526    0.9986 H         1 <0>         0.1116
     12 N1          3.3611    2.3826   -0.9374 N.pl3     1 <0>        -0.8758
     13 S1          4.2214    3.6959   -0.4106 S.o2      1 <0>         2.7599
     14 O1          4.8693    4.2412   -1.5517 O.2       1 <0>        -0.9154
     15 O2          3.3405    4.4589    0.4025 O.2       1 <0>        -0.9147
     16 C11         5.4926    3.0944    0.6509 C.ar      1 <0>        -0.7873
     17 C12         6.7261    2.7541    0.1261 C.ar      1 <0>         0.0044
     18 C13         7.7250    2.2824    0.9550 C.ar      1 <0>        -0.1933
     19 C14         7.4893    2.1505    2.3171 C.ar      1 <0>         0.1311
     20 C15         6.2499    2.4933    2.8407 C.ar      1 <0>        -0.1442
     21 C16         5.2566    2.9690    2.0076 C.ar      1 <0>         0.0021
     22 C17         5.9949    2.3508    4.3183 C.3       1 <0>        -0.1178
     23 C18         6.7655    1.1447    4.8563 C.3       1 <0>        -0.1831
     24 C19         8.1930    1.1956    4.3825 C.2       1 <0>         0.3088
     25 O3          9.0802    0.8010    5.1092 O.2       1 <0>        -0.3418
     26 N2          8.4964    1.6743    3.1620 N.am      1 <0>        -0.3153
     27 H2         -2.5103    1.5175   -1.6227 H         1 <0>         0.1302
     28 H3         -1.1835    3.5943   -1.7207 H         1 <0>         0.1332
     29 H4          1.1539    3.5892   -0.9646 H         1 <0>         0.1412
     30 H5         -1.4846   -0.5504   -0.7817 H         1 <0>         0.1296
     31 H6          0.2420   -1.4408    0.7482 H         1 <0>         0.0919
     32 H7          1.2183   -1.5901   -0.7297 H         1 <0>         0.0938
     33 H8          1.9981   -0.1933    1.8623 H         1 <0>         0.0869
     34 H9          2.7372   -1.6511    1.1509 H         1 <0>         0.0864
     35 H10         4.1689    0.2309    0.5845 H         1 <0>         0.0863
     36 H11         3.2987   -0.2353   -0.8994 H         1 <0>         0.0952
     37 H12         3.3681    2.1435   -1.8774 H         1 <0>         0.2487
     38 H13         6.9084    2.8570   -0.9335 H         1 <0>         0.1551
     39 H14         8.6878    2.0161    0.5444 H         1 <0>         0.1427
     40 H15         4.2936    3.2392    2.4152 H         1 <0>         0.1538
     41 H16         4.9283    2.2067    4.4907 H         1 <0>         0.1003
     42 H17         6.3271    3.2527    4.8325 H         1 <0>         0.1057
     43 H18         6.2978    0.2274    4.4986 H         1 <0>         0.1146
     44 H19         6.7450    1.1588    5.9461 H         1 <0>         0.1266
     45 H20         9.4202    1.6893    2.8665 H         1 <0>         0.2486
@<TRIPOS>BOND
     1    1    6 ar
     2    1    2 ar
     3    1   27 1
     4    2    3 ar
     5    2   28 1
     6    3    4 ar
     7    3   29 1
     8    4   10 1
     9    4    5 ar
    10    5    6 ar
    11    5    7 1
    12    6   30 1
    13    7    8 1
    14    7   31 1
    15    7   32 1
    16    8    9 1
    17    8   33 1
    18    8   34 1
    19    9   10 1
    20    9   35 1
    21    9   36 1
    22   10   11 1
    23   10   12 1
    24   12   13 1
    25   12   37 1
    26   13   14 2
    27   13   15 2
    28   13   16 1
    29   16   21 ar
    30   16   17 ar
    31   17   18 ar
    32   17   38 1
    33   18   19 ar
    34   18   39 1
    35   19   26 1
    36   19   20 ar
    37   20   21 ar
    38   20   22 1
    39   21   40 1
    40   22   23 1
    41   22   41 1
    42   22   42 1
    43   23   24 1
    44   23   43 1
    45   23   44 1
    46   24   25 2
    47   24   26 am
    48   26   45 1
@<TRIPOS>MOLECULE
ZINC03908217
   39    42     0     0     0
SMALL
USER_CHARGES

@<TRIPOS>ATOM
      1 C1         -9.8707   -0.5263   -0.9259 C.3       1 <0>        -0.1735
      2 C2         -9.0444   -1.6189   -0.2980 C.ar      1 <0>        -0.0674
      3 C3         -9.6656   -2.6414    0.3955 C.ar      1 <0>        -0.1301
      4 C4         -8.9130   -3.6468    0.9734 C.ar      1 <0>        -0.1337
      5 C5         -7.5327   -3.6353    0.8539 C.ar      1 <0>         0.0343
      6 C6         -6.9057   -2.6024    0.1602 C.ar      1 <0>         0.0393
      7 C7         -7.6678   -1.5968   -0.4170 C.ar      1 <0>        -0.1176
      8 N1         -5.5107   -2.5822    0.0411 N.am      1 <0>        -0.3055
      9 C8         -4.8518   -1.4065    0.0346 C.2       1 <0>         0.3856
     10 O1         -5.4726   -0.3620    0.0503 O.2       1 <0>        -0.3461
     11 C9         -3.3691   -1.3875    0.0082 C.2       1 <0>        -0.1741
     12 C10        -2.5330   -0.2412   -0.0016 C.2       1 <0>        -0.1826
     13 C11        -1.2677   -0.7600   -0.0265 C.2       1 <0>        -0.0445
     14 O2         -1.4069   -2.0975   -0.0351 O.3       1 <0>         0.0591
     15 N2         -2.5697   -2.4267   -0.0107 N.2       1 <0>        -0.0127
     16 C12         0.0003   -0.0014   -0.0465 C.ar      1 <0>        -0.0179
     17 C13        -0.0193    1.3945   -0.0407 C.ar      1 <0>        -0.0962
     18 C14         1.1648    2.1007   -0.0589 C.ar      1 <0>        -0.1139
     19 C15         2.3784    1.4285   -0.0829 C.ar      1 <0>         0.0202
     20 C16         2.4047    0.0342   -0.0889 C.ar      1 <0>         0.0046
     21 C17         1.2207   -0.6789   -0.0707 C.ar      1 <0>        -0.0904
     22 O3          3.7064   -0.3770   -0.1140 O.3       1 <0>        -0.2030
     23 C18         4.4642    0.7722   -0.5360 C.3       1 <0>         0.1064
     24 O4          3.6634    1.8880   -0.1039 O.3       1 <0>        -0.2036
     25 O5         -6.7915   -4.6264    1.4169 O.3       1 <0>        -0.2927
     26 H1        -10.1361   -0.8110   -1.9441 H         1 <0>         0.0865
     27 H2        -10.7789   -0.3765   -0.3421 H         1 <0>         0.0812
     28 H3         -9.2948    0.3989   -0.9458 H         1 <0>         0.0885
     29 H4        -10.7417   -2.6543    0.4863 H         1 <0>         0.1337
     30 H5         -9.4014   -4.4438    1.5143 H         1 <0>         0.1418
     31 H6         -7.1853   -0.7973   -0.9595 H         1 <0>         0.1681
     32 H7         -5.0185   -3.4144   -0.0368 H         1 <0>         0.2552
     33 H8         -2.8269    0.7980    0.0086 H         1 <0>         0.1908
     34 H9         -0.9620    1.9213   -0.0265 H         1 <0>         0.1476
     35 H10         1.1476    3.1806   -0.0548 H         1 <0>         0.1514
     36 H11         1.2396   -1.7587   -0.0756 H         1 <0>         0.1577
     37 H12         4.5774    0.7792   -1.6201 H         1 <0>         0.0920
     38 H13         5.4387    0.7885   -0.0481 H         1 <0>         0.1348
     39 H14        -6.5200   -4.4458    2.3273 H         1 <0>         0.2270
@<TRIPOS>BOND
     1    1    2 1
     2    1   26 1
     3    1   27 1
     4    1   28 1
     5    2    7 ar
     6    2    3 ar
     7    3    4 ar
     8    3   29 1
     9    4    5 ar
    10    4   30 1
    11    5    6 ar
    12    5   25 1
    13    6    7 ar
    14    6    8 1
    15    7   31 1
    16    8    9 am
    17    8   32 1
    18    9   10 2
    19    9   11 1
    20   11   15 2
    21   11   12 1
    22   12   13 2
    23   12   33 1
    24   13   14 1
    25   13   16 1
    26   14   15 1
    27   16   21 ar
    28   16   17 ar
    29   17   18 ar
    30   17   34 1
    31   18   19 ar
    32   18   35 1
    33   19   24 1
    34   19   20 ar
    35   20   21 ar
    36   20   22 1
    37   21   36 1
    38   22   23 1
    39   23   24 1
    40   23   37 1
    41   23   38 1
    42   25   39 1
@<TRIPOS>MOLECULE
ZINC03908450
   40    43     0     0     0
SMALL
USER_CHARGES

@<TRIPOS>ATOM
      1 C1         -3.3196    1.2898   12.9752 C.2       1 <0>        -0.2215
      2 C2         -2.6128    0.7612   11.8795 C.2       1 <0>        -0.1638
      3 C3         -2.9701    1.4983   10.7897 C.2       1 <0>        -0.0051
      4 O1         -3.8597    2.4293   11.1881 O.3       1 <0>        -0.0402
      5 C4         -4.0731    2.3062   12.5076 C.2       1 <0>        -0.0748
      6 C5         -2.4763    1.3071    9.4183 C.2       1 <0>        -0.0149
      7 C6         -2.8226    2.0369    8.3100 C.2       1 <0>        -0.1678
      8 C7         -2.0712    1.4424    7.2654 C.2       1 <0>        -0.1723
      9 N1         -1.3779    0.4730    7.8141 N.2       1 <0>        -0.0085
     10 O2         -1.5895    0.3847    9.0009 O.3       1 <0>         0.0705
     11 C8         -2.0650    1.8410    5.8372 C.2       1 <0>         0.3824
     12 O3         -2.7600    2.7640    5.4611 O.2       1 <0>        -0.3249
     13 N2         -1.2886    1.1795    4.9563 N.am      1 <0>        -0.2550
     14 C9         -1.2828    1.5520    3.6219 C.2       1 <0>        -0.1437
     15 C10        -0.5584    0.9987    2.5751 C.2       1 <0>        -0.2324
     16 C11        -0.7317    1.5801    1.2572 C.2       1 <0>        -0.0647
     17 C12        -1.6011    2.6148    1.1937 C.2       1 <0>        -0.3243
     18 S1         -2.1786    2.8211    2.8545 S.3       1 <0>         0.5078
     19 C13        -1.9795    3.4047   -0.0210 C.3       1 <0>        -0.0731
     20 C14        -0.9558    3.1107   -1.1273 C.3       1 <0>        -0.1566
     21 C15        -0.7583    1.5954   -1.2267 C.3       1 <0>        -0.1580
     22 C16        -0.0127    1.0858    0.0080 C.3       1 <0>        -0.1024
     23 C17         0.3512   -0.1304    2.7932 C.2       1 <0>         0.3604
     24 O4         -0.0605   -1.2715    2.6934 O.2       1 <0>        -0.3597
     25 N3          1.6430    0.0951    3.1040 N.am      1 <0>        -0.4283
     26 H1         -3.2717    0.9438   13.9972 H         1 <0>         0.1637
     27 H2         -1.9196   -0.0668   11.8985 H         1 <0>         0.1685
     28 H3         -4.7383    2.9194   13.0973 H         1 <0>         0.2066
     29 H4         -3.5087    2.8686    8.2474 H         1 <0>         0.2007
     30 H5         -0.7338    0.4427    5.2566 H         1 <0>         0.2605
     31 H6         -1.9695    4.4688    0.2151 H         1 <0>         0.0918
     32 H7         -2.9749    3.1114   -0.3545 H         1 <0>         0.0971
     33 H8         -0.0067    3.5877   -0.8829 H         1 <0>         0.0862
     34 H9         -1.3231    3.4945   -2.0791 H         1 <0>         0.0841
     35 H10        -0.1792    1.3636   -2.1206 H         1 <0>         0.0823
     36 H11        -1.7312    1.1079   -1.2890 H         1 <0>         0.0914
     37 H12         0.0021   -0.0041    0.0020 H         1 <0>         0.1040
     38 H13         1.0091    1.4652    0.0003 H         1 <0>         0.0880
     39 H14         1.9711    1.0045    3.1835 H         1 <0>         0.2191
     40 H15         2.2447   -0.6519    3.2483 H         1 <0>         0.2270
@<TRIPOS>BOND
     1    1    5 2
     2    1    2 1
     3    1   26 1
     4    2    3 2
     5    2   27 1
     6    3    4 1
     7    3    6 1
     8    4    5 1
     9    5   28 1
    10    6   10 1
    11    6    7 2
    12    7    8 1
    13    7   29 1
    14    8    9 2
    15    8   11 1
    16    9   10 1
    17   11   12 2
    18   11   13 am
    19   13   14 1
    20   13   30 1
    21   14   18 1
    22   14   15 2
    23   15   16 1
    24   15   23 1
    25   16   22 1
    26   16   17 2
    27   17   18 1
    28   17   19 1
    29   19   20 1
    30   19   31 1
    31   19   32 1
    32   20   21 1
    33   20   33 1
    34   20   34 1
    35   21   22 1
    36   21   35 1
    37   21   36 1
    38   22   37 1
    39   22   38 1
    40   23   24 2
    41   23   25 am
    42   25   39 1
    43   25   40 1
@<TRIPOS>MOLECULE
ZINC03908590
   41    43     0     0     0
SMALL
USER_CHARGES

@<TRIPOS>ATOM
      1 C1          1.3083   -4.7185   -0.8139 C.3       1 <0>        -0.0640
      2 O1          0.2457   -4.1301   -0.0611 O.3       1 <0>        -0.1977
      3 C2          0.1806   -2.7711   -0.0427 C.ar      1 <0>         0.0592
      4 C3          1.1193   -2.0231   -0.7349 C.ar      1 <0>        -0.1750
      5 C4          1.0511   -0.6430   -0.7219 C.ar      1 <0>        -0.1237
      6 C5          0.0479   -0.0026   -0.0064 C.ar      1 <0>         0.0557
      7 C6         -0.8943   -0.7492    0.6883 C.ar      1 <0>        -0.2183
      8 C7         -0.8291   -2.1325    0.6710 C.ar      1 <0>         0.0848
      9 O2         -1.7505   -2.8659    1.3510 O.3       1 <0>        -0.1942
     10 C8         -2.7581   -2.1438    2.0619 C.3       1 <0>        -0.0644
     11 N1         -0.0169    1.3958    0.0097 N.am      1 <0>        -0.3095
     12 C9          1.1178    2.1231    0.0035 C.2       1 <0>         0.3873
     13 O3          2.1941    1.5689   -0.1009 O.2       1 <0>        -0.3422
     14 C10         1.0527    3.5998    0.1242 C.2       1 <0>        -0.1742
     15 C11         2.1483    4.5011    0.1398 C.2       1 <0>        -0.1767
     16 C12         1.5591    5.7293    0.2655 C.2       1 <0>        -0.0424
     17 O4          0.2337    5.5093    0.3226 O.3       1 <0>         0.0566
     18 N2         -0.0285    4.3320    0.2435 N.2       1 <0>        -0.0209
     19 C13         2.2432    7.0370    0.3305 C.ar      1 <0>        -0.0514
     20 C14         3.3061    7.2296    1.2143 C.ar      1 <0>        -0.0849
     21 C15         3.9407    8.4527    1.2705 C.ar      1 <0>        -0.1394
     22 C16         3.5278    9.4914    0.4534 C.ar      1 <0>        -0.0983
     23 C17         2.4768    9.3130   -0.4256 C.ar      1 <0>        -0.1556
     24 C18         1.8323    8.0884   -0.4983 C.ar      1 <0>         0.1015
     25 O5          0.8032    7.9101   -1.3662 O.3       1 <0>        -0.2857
     26 H1          2.2655   -4.3847   -0.4133 H         1 <0>         0.0672
     27 H2          1.2444   -5.8044   -0.7451 H         1 <0>         0.1081
     28 H3          1.2256   -4.4151   -1.8576 H         1 <0>         0.0652
     29 H4          1.9024   -2.5192   -1.2889 H         1 <0>         0.1444
     30 H5          1.7810   -0.0617   -1.2658 H         1 <0>         0.1661
     31 H6         -1.6773   -0.2518    1.2413 H         1 <0>         0.1414
     32 H7         -3.4266   -2.8469    2.5589 H         1 <0>         0.1094
     33 H8         -2.2878   -1.5014    2.8063 H         1 <0>         0.0666
     34 H9         -3.3285   -1.5324    1.3627 H         1 <0>         0.0642
     35 H10        -0.8785    1.8413    0.0213 H         1 <0>         0.2440
     36 H11         3.2011    4.2715    0.0671 H         1 <0>         0.1933
     37 H12         3.6310    6.4219    1.8535 H         1 <0>         0.1432
     38 H13         4.7634    8.6008    1.9543 H         1 <0>         0.1392
     39 H14         4.0298   10.4463    0.5037 H         1 <0>         0.1375
     40 H15         2.1601   10.1277   -1.0599 H         1 <0>         0.1467
     41 H16        -0.0644    8.1251   -0.9970 H         1 <0>         0.2371
@<TRIPOS>BOND
     1    1    2 1
     2    1   26 1
     3    1   27 1
     4    1   28 1
     5    2    3 1
     6    3    8 ar
     7    3    4 ar
     8    4    5 ar
     9    4   29 1
    10    5    6 ar
    11    5   30 1
    12    6    7 ar
    13    6   11 1
    14    7    8 ar
    15    7   31 1
    16    8    9 1
    17    9   10 1
    18   10   32 1
    19   10   33 1
    20   10   34 1
    21   11   12 am
    22   11   35 1
    23   12   13 2
    24   12   14 1
    25   14   18 2
    26   14   15 1
    27   15   16 2
    28   15   36 1
    29   16   17 1
    30   16   19 1
    31   17   18 1
    32   19   24 ar
    33   19   20 ar
    34   20   21 ar
    35   20   37 1
    36   21   22 ar
    37   21   38 1
    38   22   23 ar
    39   22   39 1
    40   23   24 ar
    41   23   40 1
    42   24   25 1
    43   25   41 1
@<TRIPOS>MOLECULE
ZINC03908601
   40    42     0     0     0
SMALL
USER_CHARGES

@<TRIPOS>ATOM
      1 C1         -5.5121    1.4359    1.4784 C.3       1 <0>        -0.2057
      2 C2         -5.0327    1.5992    0.0347 C.3       1 <0>        -0.1119
      3 C3         -3.5972    2.0577    0.0308 C.2       1 <0>        -0.0657
      4 C4         -3.2781    3.3654    0.0368 C.2       1 <0>        -0.3205
      5 S1         -1.4973    3.3521    0.0350 S.3       1 <0>         0.5133
      6 C5         -1.2213    1.6428    0.0168 C.2       1 <0>        -0.1312
      7 C6         -2.5060    1.1138    0.0200 C.2       1 <0>        -0.1330
      8 C7         -2.7360   -0.2996    0.0125 C.1       1 <0>        -0.0678
      9 N1         -2.9185   -1.4209    0.0065 N.1       1 <0>        -0.0586
     10 N2         -0.0111    0.9658    0.0074 N.am      1 <0>        -0.2552
     11 C8          1.1468    1.6555   -0.0000 C.2       1 <0>         0.3847
     12 O1          1.1303    2.8705    0.0067 O.2       1 <0>        -0.3251
     13 C9          2.4409    0.9317   -0.0162 C.2       1 <0>        -0.1771
     14 C10         3.7377    1.5074   -0.0255 C.2       1 <0>        -0.1759
     15 C11         4.5751    0.4258   -0.0385 C.2       1 <0>        -0.0363
     16 O2          3.7867   -0.6636   -0.0364 O.3       1 <0>         0.0623
     17 N3          2.6148   -0.3681   -0.0191 N.2       1 <0>        -0.0113
     18 C12         6.0521    0.4498   -0.0517 C.ar      1 <0>        -0.0553
     19 C13         6.7327    1.2413   -0.9781 C.ar      1 <0>        -0.0840
     20 C14         8.1116    1.2595   -0.9856 C.ar      1 <0>        -0.1393
     21 C15         8.8246    0.4958   -0.0770 C.ar      1 <0>        -0.0962
     22 C16         8.1622   -0.2917    0.8450 C.ar      1 <0>        -0.1552
     23 C17         6.7768   -0.3171    0.8691 C.ar      1 <0>         0.1036
     24 O3          6.1248   -1.0864    1.7785 O.3       1 <0>        -0.2859
     25 C18        -4.2044    4.5540    0.0489 C.3       1 <0>        -0.1237
     26 H1         -5.4344    2.3913    1.9973 H         1 <0>         0.0746
     27 H2         -6.5504    1.1042    1.4812 H         1 <0>         0.0754
     28 H3         -4.8929    0.6957    1.9853 H         1 <0>         0.0822
     29 H4         -5.6519    2.3393   -0.4722 H         1 <0>         0.0893
     30 H5         -5.1104    0.6438   -0.4842 H         1 <0>         0.0950
     31 H6          0.0021   -0.0041    0.0020 H         1 <0>         0.2632
     32 H7          4.0018    2.5546   -0.0235 H         1 <0>         0.1946
     33 H8          6.1802    1.8384   -1.6885 H         1 <0>         0.1428
     34 H9          8.6375    1.8722   -1.7028 H         1 <0>         0.1399
     35 H10         9.9043    0.5156   -0.0893 H         1 <0>         0.1384
     36 H11         8.7248   -0.8848    1.5508 H         1 <0>         0.1479
     37 H12         5.9418   -1.9857    1.4739 H         1 <0>         0.2384
     38 H13        -4.4222    4.8345    1.0795 H         1 <0>         0.0905
     39 H14        -3.7286    5.3907   -0.4626 H         1 <0>         0.0864
     40 H15        -5.1326    4.2966   -0.4614 H         1 <0>         0.0924
@<TRIPOS>BOND
     1    1    2 1
     2    1   26 1
     3    1   27 1
     4    1   28 1
     5    2    3 1
     6    2   29 1
     7    2   30 1
     8    3    7 1
     9    3    4 2
    10    4    5 1
    11    4   25 1
    12    5    6 1
    13    6    7 2
    14    6   10 1
    15    7    8 1
    16    8    9 3
    17   10   11 am
    18   10   31 1
    19   11   12 2
    20   11   13 1
    21   13   17 2
    22   13   14 1
    23   14   15 2
    24   14   32 1
    25   15   16 1
    26   15   18 1
    27   16   17 1
    28   18   23 ar
    29   18   19 ar
    30   19   20 ar
    31   19   33 1
    32   20   21 ar
    33   20   34 1
    34   21   22 ar
    35   21   35 1
    36   22   23 ar
    37   22   36 1
    38   23   24 1
    39   24   37 1
    40   25   38 1
    41   25   39 1
    42   25   40 1
@<TRIPOS>MOLECULE
ZINC03908803
   44    46     0     0     0
SMALL
USER_CHARGES

@<TRIPOS>ATOM
      1 C1          1.0440    0.7133    2.6317 C.3       1 <0>        -0.2145
      2 C2          2.3141   -0.0211    2.1977 C.3       1 <0>        -0.1771
      3 C3          2.3102   -0.1919    0.6773 C.3       1 <0>         0.0335
      4 H1          1.3856   -0.6799    0.3689 H         1 <0>         0.1070
      5 C4          3.5048   -1.0508    0.2575 C.3       1 <0>        -0.0134
      6 O1          4.7093   -0.4710    0.7627 O.3       1 <0>        -0.3514
      7 N1          2.4053    1.1228    0.0379 N.pl3     1 <0>        -0.3354
      8 C5          1.2875    1.6777   -0.5856 C.ar      1 <0>         0.1884
      9 C6          0.0445    1.0681   -0.4529 C.ar      1 <0>        -0.2358
     10 C7         -1.0600    1.6111   -1.0724 C.ar      1 <0>        -0.0284
     11 C8         -0.9327    2.7797   -1.8244 C.ar      1 <0>        -0.1055
     12 C9          0.3152    3.3892   -1.9559 C.ar      1 <0>         0.0145
     13 C10         1.4180    2.8390   -1.3389 C.ar      1 <0>        -0.2086
     14 N2          2.7425    3.4852   -1.4780 N.pl3     1 <0>         0.5627
     15 O2          2.8383    4.5638   -2.0356 O.2       1 <0>        -0.3481
     16 O3          3.7365    2.9383   -1.0348 O.3       1 <0>        -0.3810
     17 C11        -2.1195    3.3691   -2.4859 C.2       1 <0>        -0.0008
     18 C12        -3.4123    3.4028   -1.7864 C.ar      1 <0>        -0.0490
     19 C13        -3.5642    2.8908   -0.4987 C.ar      1 <0>        -0.1292
     20 C14        -4.7965    2.9464    0.1143 C.ar      1 <0>        -0.1033
     21 C15        -5.8881    3.5066   -0.5364 C.ar      1 <0>        -0.1299
     22 C16        -5.7609    4.0184   -1.8089 C.ar      1 <0>        -0.0618
     23 C17        -4.5224    3.9722   -2.4476 C.ar      1 <0>        -0.1121
     24 C18        -4.3283    4.5030   -3.8033 C.2       1 <0>         0.3200
     25 O4         -5.2581    5.0033   -4.4108 O.2       1 <0>        -0.3546
     26 N3         -3.1044    4.4280   -4.3650 N.am      1 <0>        -0.2834
     27 H2         -2.9713    4.7852   -5.2895 H         1 <0>         0.2847
     28 N4         -2.0189    3.8661   -3.6924 N.2       1 <0>        -0.0209
     29 H3          0.1704    0.1854    2.2493 H         1 <0>         0.0637
     30 H4          0.9991    0.7495    3.7202 H         1 <0>         0.0799
     31 H5          1.0576    1.7284    2.2347 H         1 <0>         0.0818
     32 H6          2.3475   -1.0013    2.6734 H         1 <0>         0.0885
     33 H7          3.1883    0.5575    2.4961 H         1 <0>         0.1125
     34 H8          3.3887   -2.0567    0.6610 H         1 <0>         0.0681
     35 H9          3.5532   -1.0990   -0.8303 H         1 <0>         0.0733
     36 H10         5.5091   -0.9641    0.5342 H         1 <0>         0.2181
     37 H11         3.2455    1.6074    0.0481 H         1 <0>         0.2847
     38 H12        -0.0542    0.1659    0.1325 H         1 <0>         0.1529
     39 H13        -2.0242    1.1348   -0.9728 H         1 <0>         0.1498
     40 H14         0.4171    4.2913   -2.5409 H         1 <0>         0.1772
     41 H15        -2.7209    2.4534    0.0151 H         1 <0>         0.1456
     42 H16        -4.9152    2.5497    1.1117 H         1 <0>         0.1355
     43 H17        -6.8466    3.5409   -0.0397 H         1 <0>         0.1396
     44 H18        -6.6144    4.4527   -2.3082 H         1 <0>         0.1616
@<TRIPOS>BOND
     1    1    2 1
     2    1   29 1
     3    1   30 1
     4    1   31 1
     5    2    3 1
     6    2   32 1
     7    2   33 1
     8    3    4 1
     9    3    5 1
    10    3    7 1
    11    5    6 1
    12    5   34 1
    13    5   35 1
    14    6   36 1
    15    7    8 1
    16    7   37 1
    17    8   13 ar
    18    8    9 ar
    19    9   10 ar
    20    9   38 1
    21   10   11 ar
    22   10   39 1
    23   11   12 ar
    24   11   17 1
    25   12   13 ar
    26   12   40 1
    27   13   14 1
    28   14   15 2
    29   14   16 1
    30   17   28 2
    31   17   18 1
    32   18   23 ar
    33   18   19 ar
    34   19   20 ar
    35   19   41 1
    36   20   21 ar
    37   20   42 1
    38   21   22 ar
    39   21   43 1
    40   22   23 ar
    41   22   44 1
    42   23   24 1
    43   24   25 2
    44   24   26 am
    45   26   27 1
    46   26   28 1
@<TRIPOS>MOLECULE
ZINC03908803
   44    46     0     0     0
SMALL
USER_CHARGES

@<TRIPOS>ATOM
      1 C1          1.0434    0.7105    2.6305 C.3       1 <0>        -0.2142
      2 C2          2.3131   -0.0244    2.1963 C.3       1 <0>        -0.1770
      3 C3          2.3089   -0.1951    0.6759 C.3       1 <0>         0.0344
      4 H1          1.3840   -0.6827    0.3676 H         1 <0>         0.1068
      5 C4          3.5031   -1.0545    0.2558 C.3       1 <0>        -0.0134
      6 O1          4.7079   -0.4752    0.7608 O.3       1 <0>        -0.3513
      7 N1          2.4045    1.1196    0.0365 N.pl3     1 <0>        -0.3382
      8 C5          1.2868    1.6750   -0.5867 C.ar      1 <0>         0.1857
      9 C6          0.0436    1.0660   -0.4539 C.ar      1 <0>        -0.2370
     10 C7         -1.0608    1.6095   -1.0731 C.ar      1 <0>        -0.0357
     11 C8         -0.9331    2.7781   -1.8251 C.ar      1 <0>        -0.1035
     12 C9          0.3150    3.3871   -1.9568 C.ar      1 <0>         0.0164
     13 C10         1.4177    2.8363   -1.3400 C.ar      1 <0>        -0.2071
     14 N2          2.7425    3.4820   -1.4793 N.pl3     1 <0>         0.5625
     15 O2          2.8386    4.5606   -2.0368 O.2       1 <0>        -0.3464
     16 O3          3.7363    2.9346   -1.0363 O.3       1 <0>        -0.3838
     17 C11        -2.1198    3.3681   -2.4863 C.ar      1 <0>        -0.0361
     18 C12        -3.4124    3.4023   -1.7866 C.ar      1 <0>        -0.0244
     19 C13        -3.5643    2.8903   -0.4989 C.ar      1 <0>        -0.1168
     20 C14        -4.7964    2.9466    0.1144 C.ar      1 <0>        -0.1076
     21 C15        -5.8880    3.5071   -0.5362 C.ar      1 <0>        -0.1115
     22 C16        -5.7610    4.0181   -1.8090 C.ar      1 <0>        -0.1194
     23 C17        -4.5225    3.9719   -2.4477 C.ar      1 <0>        -0.1578
     24 C18        -4.3285    4.5024   -3.8036 C.ar      1 <0>         0.1399
     25 O4         -5.2584    5.0022   -4.4113 O.3       1 <0>        -0.1636
     26 N3         -3.1046    4.4274   -4.3653 N.ar      1 <0>        -0.1417
     27 H2         -6.0817    4.9718   -3.8445 H         1 <0>         0.2603
     28 N4         -2.0192    3.8648   -3.6930 N.ar      1 <0>        -0.0165
     29 H3          0.1695    0.1831    2.2483 H         1 <0>         0.0633
     30 H4          0.9987    0.7467    3.7191 H         1 <0>         0.0784
     31 H5          1.0574    1.7257    2.2336 H         1 <0>         0.0823
     32 H6          2.3462   -1.0046    2.6719 H         1 <0>         0.0873
     33 H7          3.1877    0.5538    2.4946 H         1 <0>         0.1122
     34 H8          3.3866   -2.0604    0.6593 H         1 <0>         0.0668
     35 H9          3.5513   -1.1026   -0.8320 H         1 <0>         0.0739
     36 H10         5.5075   -0.9687    0.5322 H         1 <0>         0.2174
     37 H11         3.2449    1.6038    0.0466 H         1 <0>         0.2843
     38 H12        -0.0554    0.1638    0.1315 H         1 <0>         0.1503
     39 H13        -2.0252    1.1336   -0.9734 H         1 <0>         0.1447
     40 H14         0.4172    4.2891   -2.5417 H         1 <0>         0.1813
     41 H15        -2.7211    2.4525    0.0147 H         1 <0>         0.1524
     42 H16        -4.9151    2.5502    1.1119 H         1 <0>         0.1387
     43 H17        -6.8464    3.5417   -0.0393 H         1 <0>         0.1386
     44 H18        -6.6145    4.4521   -2.3084 H         1 <0>         0.1251
@<TRIPOS>BOND
     1    1    2 1
     2    1   29 1
     3    1   30 1
     4    1   31 1
     5    2    3 1
     6    2   32 1
     7    2   33 1
     8    3    4 1
     9    3    5 1
    10    3    7 1
    11    5    6 1
    12    5   34 1
    13    5   35 1
    14    6   36 1
    15    7    8 1
    16    7   37 1
    17    8   13 ar
    18    8    9 ar
    19    9   10 ar
    20    9   38 1
    21   10   11 ar
    22   10   39 1
    23   11   12 ar
    24   11   17 1
    25   12   13 ar
    26   12   40 1
    27   13   14 1
    28   14   15 2
    29   14   16 1
    30   17   18 ar
    31   17   28 ar
    32   18   19 ar
    33   18   23 ar
    34   19   20 ar
    35   19   41 1
    36   20   21 ar
    37   20   42 1
    38   21   22 ar
    39   21   43 1
    40   22   23 ar
    41   22   44 1
    42   23   24 ar
    43   24   26 ar
    44   24   25 1
    45   25   27 1
    46   26   28 ar
@<TRIPOS>MOLECULE
ZINC03908803
   44    46     0     0     0
SMALL
USER_CHARGES

@<TRIPOS>ATOM
      1 C1          1.0434    0.7105    2.6305 C.3       1 <0>        -0.2142
      2 C2          2.3131   -0.0244    2.1963 C.3       1 <0>        -0.1770
      3 C3          2.3089   -0.1951    0.6759 C.3       1 <0>         0.0344
      4 H1          1.3840   -0.6827    0.3676 H         1 <0>         0.1068
      5 C4          3.5031   -1.0545    0.2558 C.3       1 <0>        -0.0134
      6 O1          4.7079   -0.4752    0.7608 O.3       1 <0>        -0.3513
      7 N1          2.4045    1.1196    0.0365 N.pl3     1 <0>        -0.3382
      8 C5          1.2868    1.6750   -0.5867 C.ar      1 <0>         0.1857
      9 C6          0.0436    1.0660   -0.4539 C.ar      1 <0>        -0.2370
     10 C7         -1.0608    1.6095   -1.0731 C.ar      1 <0>        -0.0357
     11 C8         -0.9331    2.7781   -1.8251 C.ar      1 <0>        -0.1035
     12 C9          0.3150    3.3871   -1.9568 C.ar      1 <0>         0.0164
     13 C10         1.4177    2.8363   -1.3400 C.ar      1 <0>        -0.2071
     14 N2          2.7425    3.4820   -1.4793 N.pl3     1 <0>         0.5625
     15 O2          2.8386    4.5606   -2.0368 O.2       1 <0>        -0.3464
     16 O3          3.7363    2.9346   -1.0363 O.3       1 <0>        -0.3838
     17 C11        -2.1198    3.3681   -2.4863 C.ar      1 <0>        -0.0361
     18 C12        -3.4124    3.4023   -1.7866 C.ar      1 <0>        -0.0244
     19 C13        -3.5643    2.8903   -0.4989 C.ar      1 <0>        -0.1168
     20 C14        -4.7964    2.9466    0.1144 C.ar      1 <0>        -0.1076
     21 C15        -5.8880    3.5071   -0.5362 C.ar      1 <0>        -0.1115
     22 C16        -5.7610    4.0181   -1.8090 C.ar      1 <0>        -0.1194
     23 C17        -4.5225    3.9719   -2.4477 C.ar      1 <0>        -0.1578
     24 C18        -4.3285    4.5024   -3.8036 C.ar      1 <0>         0.1399
     25 O4         -5.2584    5.0022   -4.4113 O.3       1 <0>        -0.1636
     26 N3         -3.1046    4.4274   -4.3653 N.ar      1 <0>        -0.1417
     27 H2         -6.0817    4.9718   -3.8445 H         1 <0>         0.2603
     28 N4         -2.0192    3.8648   -3.6930 N.ar      1 <0>        -0.0165
     29 H3          0.1695    0.1831    2.2483 H         1 <0>         0.0633
     30 H4          0.9987    0.7467    3.7191 H         1 <0>         0.0784
     31 H5          1.0574    1.7257    2.2336 H         1 <0>         0.0823
     32 H6          2.3462   -1.0046    2.6719 H         1 <0>         0.0873
     33 H7          3.1877    0.5538    2.4946 H         1 <0>         0.1122
     34 H8          3.3866   -2.0604    0.6593 H         1 <0>         0.0668
     35 H9          3.5513   -1.1026   -0.8320 H         1 <0>         0.0739
     36 H10         5.5075   -0.9687    0.5322 H         1 <0>         0.2174
     37 H11         3.2449    1.6038    0.0466 H         1 <0>         0.2843
     38 H12        -0.0554    0.1638    0.1315 H         1 <0>         0.1503
     39 H13        -2.0252    1.1336   -0.9734 H         1 <0>         0.1447
     40 H14         0.4172    4.2891   -2.5417 H         1 <0>         0.1813
     41 H15        -2.7211    2.4525    0.0147 H         1 <0>         0.1524
     42 H16        -4.9151    2.5502    1.1119 H         1 <0>         0.1387
     43 H17        -6.8464    3.5417   -0.0393 H         1 <0>         0.1386
     44 H18        -6.6145    4.4521   -2.3084 H         1 <0>         0.1251
@<TRIPOS>BOND
     1    1    2 1
     2    1   29 1
     3    1   30 1
     4    1   31 1
     5    2    3 1
     6    2   32 1
     7    2   33 1
     8    3    4 1
     9    3    5 1
    10    3    7 1
    11    5    6 1
    12    5   34 1
    13    5   35 1
    14    6   36 1
    15    7    8 1
    16    7   37 1
    17    8   13 ar
    18    8    9 ar
    19    9   10 ar
    20    9   38 1
    21   10   11 ar
    22   10   39 1
    23   11   12 ar
    24   11   17 1
    25   12   13 ar
    26   12   40 1
    27   13   14 1
    28   14   15 2
    29   14   16 1
    30   17   18 ar
    31   17   28 ar
    32   18   19 ar
    33   18   23 ar
    34   19   20 ar
    35   19   41 1
    36   20   21 ar
    37   20   42 1
    38   21   22 ar
    39   21   43 1
    40   22   23 ar
    41   22   44 1
    42   23   24 ar
    43   24   26 ar
    44   24   25 1
    45   25   27 1
    46   26   28 ar
@<TRIPOS>MOLECULE
ZINC03908805
   45    48     0     0     0
SMALL
USER_CHARGES

@<TRIPOS>ATOM
      1 C1          4.2621    1.6044    2.8245 C.ar      1 <0>        -0.1035
      2 C2          5.3467    0.7495    2.6779 C.ar      1 <0>        -0.1300
      3 C3          5.4273   -0.1048    1.6003 C.ar      1 <0>        -0.0618
      4 C4          4.4079   -0.1094    0.6491 C.ar      1 <0>        -0.1121
      5 C5          3.3047    0.7593    0.7981 C.ar      1 <0>        -0.0485
      6 C6          3.2441    1.6155    1.8966 C.ar      1 <0>        -0.1293
      7 C7          2.2456    0.7309   -0.2212 C.2       1 <0>        -0.0005
      8 N1          2.3390   -0.0923   -1.2345 N.2       1 <0>        -0.0214
      9 N2          3.4227   -0.9547   -1.4026 N.am      1 <0>        -0.2833
     10 H1          3.4452   -1.5570   -2.2006 H         1 <0>         0.2846
     11 C8          4.4409   -0.9990   -0.5192 C.2       1 <0>         0.3202
     12 O1          5.3729   -1.7649   -0.6874 O.2       1 <0>        -0.3547
     13 C9          1.0730    1.6272   -0.0985 C.ar      1 <0>        -0.0987
     14 C10         1.2409    2.9421    0.3376 C.ar      1 <0>        -0.0343
     15 C11         0.1484    3.7740    0.4504 C.ar      1 <0>        -0.2245
     16 C12        -1.1209    3.3044    0.1302 C.ar      1 <0>         0.1852
     17 C13        -1.2901    1.9965   -0.3100 C.ar      1 <0>        -0.1942
     18 C14        -0.2012    1.1585   -0.4191 C.ar      1 <0>         0.0090
     19 N3         -2.6416    1.5018   -0.6563 N.pl3     1 <0>         0.5522
     20 O2         -2.9734    0.3708   -0.3491 O.2       1 <0>        -0.3493
     21 O3         -3.4218    2.2257   -1.2485 O.3       1 <0>        -0.3614
     22 N4         -2.2255    4.1487    0.2458 N.pl3     1 <0>        -0.3412
     23 C15        -2.0343    5.5652    0.5670 C.3       1 <0>        -0.0063
     24 C16        -3.3952    6.2610    0.6342 C.3       1 <0>         0.0062
     25 H2         -4.0173    5.7858    1.3927 H         1 <0>         0.0942
     26 C17        -3.2050    7.7525    0.9718 C.3       1 <0>        -0.1893
     27 C18        -3.8562    8.4971   -0.2191 C.3       1 <0>        -0.1953
     28 C19        -4.7972    7.4134   -0.8043 C.3       1 <0>        -0.0253
     29 O4         -4.0433    6.1921   -0.6470 O.3       1 <0>        -0.2582
     30 H3          4.2163    2.2678    3.6755 H         1 <0>         0.1351
     31 H4          6.1351    0.7548    3.4160 H         1 <0>         0.1394
     32 H5          6.2740   -0.7667    1.4933 H         1 <0>         0.1615
     33 H6          2.4046    2.2838    2.0190 H         1 <0>         0.1460
     34 H7          2.2263    3.3072    0.5867 H         1 <0>         0.1500
     35 H8          0.2778    4.7917    0.7882 H         1 <0>         0.1483
     36 H9         -0.3338    0.1412   -0.7568 H         1 <0>         0.1716
     37 H10        -3.1201    3.7978    0.1135 H         1 <0>         0.2638
     38 H11        -1.5325    5.6547    1.5304 H         1 <0>         0.0835
     39 H12        -1.4244    6.0338   -0.2053 H         1 <0>         0.0974
     40 H13        -3.7154    8.0012    1.9022 H         1 <0>         0.0957
     41 H14        -2.1448    7.9960    1.0402 H         1 <0>         0.0929
     42 H15        -4.4247    9.3607    0.1260 H         1 <0>         0.0958
     43 H16        -3.1041    8.7955   -0.9495 H         1 <0>         0.0993
     44 H17        -5.7272    7.3660   -0.2378 H         1 <0>         0.0783
     45 H18        -5.0001    7.6091   -1.8572 H         1 <0>         0.1131
@<TRIPOS>BOND
     1    1    6 ar
     2    1    2 ar
     3    1   30 1
     4    2    3 ar
     5    2   31 1
     6    3    4 ar
     7    3   32 1
     8    4   11 1
     9    4    5 ar
    10    5    6 ar
    11    5    7 1
    12    6   33 1
    13    7    8 2
    14    7   13 1
    15    8    9 1
    16    9   10 1
    17    9   11 am
    18   11   12 2
    19   13   18 ar
    20   13   14 ar
    21   14   15 ar
    22   14   34 1
    23   15   16 ar
    24   15   35 1
    25   16   17 ar
    26   16   22 1
    27   17   18 ar
    28   17   19 1
    29   18   36 1
    30   19   20 2
    31   19   21 1
    32   22   23 1
    33   22   37 1
    34   23   24 1
    35   23   38 1
    36   23   39 1
    37   24   25 1
    38   24   29 1
    39   24   26 1
    40   26   27 1
    41   26   40 1
    42   26   41 1
    43   27   28 1
    44   27   42 1
    45   27   43 1
    46   28   29 1
    47   28   44 1
    48   28   45 1
@<TRIPOS>MOLECULE
ZINC03908805
   45    48     0     0     0
SMALL
USER_CHARGES

@<TRIPOS>ATOM
      1 C1          4.2620    1.6042    2.8246 C.ar      1 <0>        -0.1079
      2 C2          5.3465    0.7492    2.6781 C.ar      1 <0>        -0.1116
      3 C3          5.4275   -0.1046    1.6001 C.ar      1 <0>        -0.1195
      4 C4          4.4081   -0.1092    0.6489 C.ar      1 <0>        -0.1577
      5 C5          3.3049    0.7597    0.7978 C.ar      1 <0>        -0.0240
      6 C6          3.2443    1.6159    1.8963 C.ar      1 <0>        -0.1168
      7 C7          2.2461    0.7316   -0.2217 C.ar      1 <0>        -0.0359
      8 N1          2.3396   -0.0914   -1.2352 N.ar      1 <0>        -0.0170
      9 N2          3.4230   -0.9543   -1.4029 N.ar      1 <0>        -0.1418
     10 H1          6.0295   -1.6601    0.0596 H         1 <0>         0.2603
     11 C8          4.4412   -0.9985   -0.5195 C.ar      1 <0>         0.1399
     12 O1          5.3735   -1.7640   -0.6881 O.3       1 <0>        -0.1636
     13 C9          1.0737    1.6283   -0.0993 C.ar      1 <0>        -0.0964
     14 C10         1.2420    2.9431    0.3369 C.ar      1 <0>        -0.0421
     15 C11         0.1497    3.7754    0.4494 C.ar      1 <0>        -0.2254
     16 C12        -1.1197    3.3062    0.1289 C.ar      1 <0>         0.1823
     17 C13        -1.2892    1.9983   -0.3114 C.ar      1 <0>        -0.1927
     18 C14        -0.2005    1.1600   -0.4202 C.ar      1 <0>         0.0110
     19 N3         -2.6408    1.5041   -0.6580 N.pl3     1 <0>         0.5526
     20 O2         -2.9730    0.3732   -0.3509 O.2       1 <0>        -0.3498
     21 O3         -3.4206    2.2282   -1.2504 O.3       1 <0>        -0.3630
     22 N4         -2.2240    4.1508    0.2442 N.pl3     1 <0>        -0.3439
     23 C15        -2.0325    5.5673    0.5655 C.3       1 <0>        -0.0052
     24 C16        -3.3932    6.2635    0.6324 C.3       1 <0>         0.0062
     25 H2         -4.0156    5.7885    1.3907 H         1 <0>         0.0937
     26 C17        -3.2026    7.7549    0.9700 C.3       1 <0>        -0.1895
     27 C18        -3.8532    8.4998   -0.2210 C.3       1 <0>        -0.1954
     28 C19        -4.7944    7.4164   -0.8065 C.3       1 <0>        -0.0253
     29 O4         -4.0410    6.1948   -0.6490 O.3       1 <0>        -0.2571
     30 H3          4.2161    2.2674    3.6758 H         1 <0>         0.1383
     31 H4          6.1347    0.7542    3.4164 H         1 <0>         0.1384
     32 H5          6.2743   -0.7663    1.4930 H         1 <0>         0.1250
     33 H6          2.4050    2.2844    2.0185 H         1 <0>         0.1528
     34 H7          2.2274    3.3079    0.5862 H         1 <0>         0.1449
     35 H8          0.2793    4.7930    0.7872 H         1 <0>         0.1456
     36 H9         -0.3334    0.1427   -0.7580 H         1 <0>         0.1758
     37 H10        -3.1187    3.8002    0.1117 H         1 <0>         0.2632
     38 H11        -1.5309    5.6566    1.5290 H         1 <0>         0.0819
     39 H12        -1.4222    6.0357   -0.2067 H         1 <0>         0.0969
     40 H13        -3.7131    8.0038    1.9003 H         1 <0>         0.0949
     41 H14        -2.1423    7.9981    1.0387 H         1 <0>         0.0927
     42 H15        -4.4215    9.3635    0.1239 H         1 <0>         0.0951
     43 H16        -3.1009    8.7979   -0.9513 H         1 <0>         0.0993
     44 H17        -5.7246    7.3693   -0.2402 H         1 <0>         0.0778
     45 H18        -4.9970    7.6121   -1.8594 H         1 <0>         0.1129
@<TRIPOS>BOND
     1    1    6 ar
     2    1    2 ar
     3    1   30 1
     4    2    3 ar
     5    2   31 1
     6    3    4 ar
     7    3   32 1
     8    4   11 ar
     9    4    5 ar
    10    5    6 ar
    11    5    7 ar
    12    6   33 1
    13    7   13 1
    14    7    8 ar
    15    8    9 ar
    16    9   11 ar
    17   10   12 1
    18   11   12 1
    19   13   18 ar
    20   13   14 ar
    21   14   15 ar
    22   14   34 1
    23   15   16 ar
    24   15   35 1
    25   16   17 ar
    26   16   22 1
    27   17   18 ar
    28   17   19 1
    29   18   36 1
    30   19   20 2
    31   19   21 1
    32   22   23 1
    33   22   37 1
    34   23   24 1
    35   23   38 1
    36   23   39 1
    37   24   25 1
    38   24   29 1
    39   24   26 1
    40   26   27 1
    41   26   40 1
    42   26   41 1
    43   27   28 1
    44   27   42 1
    45   27   43 1
    46   28   29 1
    47   28   44 1
    48   28   45 1
@<TRIPOS>MOLECULE
ZINC03908805
   45    48     0     0     0
SMALL
USER_CHARGES

@<TRIPOS>ATOM
      1 C1          4.2620    1.6042    2.8246 C.ar      1 <0>        -0.1079
      2 C2          5.3465    0.7492    2.6781 C.ar      1 <0>        -0.1116
      3 C3          5.4275   -0.1046    1.6001 C.ar      1 <0>        -0.1195
      4 C4          4.4081   -0.1092    0.6489 C.ar      1 <0>        -0.1577
      5 C5          3.3049    0.7597    0.7978 C.ar      1 <0>        -0.0240
      6 C6          3.2443    1.6159    1.8963 C.ar      1 <0>        -0.1168
      7 C7          2.2461    0.7316   -0.2217 C.ar      1 <0>        -0.0359
      8 N1          2.3396   -0.0914   -1.2352 N.ar      1 <0>        -0.0170
      9 N2          3.4230   -0.9543   -1.4029 N.ar      1 <0>        -0.1418
     10 H1          6.0295   -1.6601    0.0596 H         1 <0>         0.2603
     11 C8          4.4412   -0.9985   -0.5195 C.ar      1 <0>         0.1399
     12 O1          5.3735   -1.7640   -0.6881 O.3       1 <0>        -0.1636
     13 C9          1.0737    1.6283   -0.0993 C.ar      1 <0>        -0.0964
     14 C10         1.2420    2.9431    0.3369 C.ar      1 <0>        -0.0421
     15 C11         0.1497    3.7754    0.4494 C.ar      1 <0>        -0.2254
     16 C12        -1.1197    3.3062    0.1289 C.ar      1 <0>         0.1823
     17 C13        -1.2892    1.9983   -0.3114 C.ar      1 <0>        -0.1927
     18 C14        -0.2005    1.1600   -0.4202 C.ar      1 <0>         0.0110
     19 N3         -2.6408    1.5041   -0.6580 N.pl3     1 <0>         0.5526
     20 O2         -2.9730    0.3732   -0.3509 O.2       1 <0>        -0.3498
     21 O3         -3.4206    2.2282   -1.2504 O.3       1 <0>        -0.3630
     22 N4         -2.2240    4.1508    0.2442 N.pl3     1 <0>        -0.3439
     23 C15        -2.0325    5.5673    0.5655 C.3       1 <0>        -0.0052
     24 C16        -3.3932    6.2635    0.6324 C.3       1 <0>         0.0062
     25 H2         -4.0156    5.7885    1.3907 H         1 <0>         0.0937
     26 C17        -3.2026    7.7549    0.9700 C.3       1 <0>        -0.1895
     27 C18        -3.8532    8.4998   -0.2210 C.3       1 <0>        -0.1954
     28 C19        -4.7944    7.4164   -0.8065 C.3       1 <0>        -0.0253
     29 O4         -4.0410    6.1948   -0.6490 O.3       1 <0>        -0.2571
     30 H3          4.2161    2.2674    3.6758 H         1 <0>         0.1383
     31 H4          6.1347    0.7542    3.4164 H         1 <0>         0.1384
     32 H5          6.2743   -0.7663    1.4930 H         1 <0>         0.1250
     33 H6          2.4050    2.2844    2.0185 H         1 <0>         0.1528
     34 H7          2.2274    3.3079    0.5862 H         1 <0>         0.1449
     35 H8          0.2793    4.7930    0.7872 H         1 <0>         0.1456
     36 H9         -0.3334    0.1427   -0.7580 H         1 <0>         0.1758
     37 H10        -3.1187    3.8002    0.1117 H         1 <0>         0.2632
     38 H11        -1.5309    5.6566    1.5290 H         1 <0>         0.0819
     39 H12        -1.4222    6.0357   -0.2067 H         1 <0>         0.0969
     40 H13        -3.7131    8.0038    1.9003 H         1 <0>         0.0949
     41 H14        -2.1423    7.9981    1.0387 H         1 <0>         0.0927
     42 H15        -4.4215    9.3635    0.1239 H         1 <0>         0.0951
     43 H16        -3.1009    8.7979   -0.9513 H         1 <0>         0.0993
     44 H17        -5.7246    7.3693   -0.2402 H         1 <0>         0.0778
     45 H18        -4.9970    7.6121   -1.8594 H         1 <0>         0.1129
@<TRIPOS>BOND
     1    1    6 ar
     2    1    2 ar
     3    1   30 1
     4    2    3 ar
     5    2   31 1
     6    3    4 ar
     7    3   32 1
     8    4   11 ar
     9    4    5 ar
    10    5    6 ar
    11    5    7 ar
    12    6   33 1
    13    7   13 1
    14    7    8 ar
    15    8    9 ar
    16    9   11 ar
    17   10   12 1
    18   11   12 1
    19   13   18 ar
    20   13   14 ar
    21   14   15 ar
    22   14   34 1
    23   15   16 ar
    24   15   35 1
    25   16   17 ar
    26   16   22 1
    27   17   18 ar
    28   17   19 1
    29   18   36 1
    30   19   20 2
    31   19   21 1
    32   22   23 1
    33   22   37 1
    34   23   24 1
    35   23   38 1
    36   23   39 1
    37   24   25 1
    38   24   29 1
    39   24   26 1
    40   26   27 1
    41   26   40 1
    42   26   41 1
    43   27   28 1
    44   27   42 1
    45   27   43 1
    46   28   29 1
    47   28   44 1
    48   28   45 1
@<TRIPOS>MOLECULE
ZINC03908811
   41    43     0     0     0
SMALL
USER_CHARGES

@<TRIPOS>ATOM
      1 C1          3.5708    1.8083   -1.5310 C.3       1 <0>        -0.2469
      2 C2          2.4351    1.0422   -0.8497 C.3       1 <0>         0.0302
      3 H1          2.2471    0.1146   -1.3902 H         1 <0>         0.1325
      4 C3          1.1681    1.8998   -0.8522 C.3       1 <0>        -0.0514
      5 N1          0.0806    1.1663   -0.1998 N.pl3     1 <0>        -0.3444
      6 C4         -1.1829    1.7469   -0.0866 C.ar      1 <0>         0.1873
      7 C5         -1.3729    3.0736   -0.4579 C.ar      1 <0>        -0.2307
      8 C6         -2.6211    3.6477   -0.3524 C.ar      1 <0>        -0.0050
      9 C7         -3.6925    2.9000    0.1378 C.ar      1 <0>        -0.1009
     10 C8         -3.4979    1.5711    0.5149 C.ar      1 <0>        -0.0115
     11 C9         -2.2486    1.0000    0.4026 C.ar      1 <0>        -0.2062
     12 N2         -2.0414   -0.4101    0.8026 N.pl3     1 <0>         0.5626
     13 O1         -2.9977   -1.1102    1.0836 O.2       1 <0>        -0.3509
     14 O2         -0.9147   -0.8702    0.8507 O.3       1 <0>        -0.3787
     15 C10        -5.0340    3.5162    0.2570 C.2       1 <0>         0.0014
     16 C11        -5.8727    3.2341    1.4311 C.ar      1 <0>        -0.0529
     17 C12        -5.4428    2.3922    2.4557 C.ar      1 <0>        -0.1260
     18 C13        -6.2661    2.1595    3.5353 C.ar      1 <0>        -0.0991
     19 C14        -7.5184    2.7548    3.6141 C.ar      1 <0>        -0.1285
     20 C15        -7.9635    3.5900    2.6133 C.ar      1 <0>        -0.0628
     21 C16        -7.1462    3.8388    1.5114 C.ar      1 <0>        -0.1125
     22 C17        -7.5686    4.7207    0.4154 C.2       1 <0>         0.3206
     23 O3         -8.6587    5.2636    0.4434 O.2       1 <0>        -0.3548
     24 N3         -6.7304    4.9203   -0.6222 N.am      1 <0>        -0.2846
     25 H2         -7.0178    5.5173   -1.3712 H         1 <0>         0.2830
     26 N4         -5.4736    4.3173   -0.6799 N.2       1 <0>        -0.0268
     27 O4          2.8043    0.7418    0.4978 O.3       1 <0>        -0.3366
     28 H3          3.7589    2.7359   -0.9904 H         1 <0>         0.0761
     29 H4          4.4735    1.1973   -1.5292 H         1 <0>         0.0996
     30 H5          3.2892    2.0374   -2.5587 H         1 <0>         0.0845
     31 H6          0.8864    2.1289   -1.8799 H         1 <0>         0.0903
     32 H7          1.3561    2.8274   -0.3116 H         1 <0>         0.0809
     33 H8          0.2380    0.2753    0.1499 H         1 <0>         0.2843
     34 H9         -0.5425    3.6531   -0.8335 H         1 <0>         0.1501
     35 H10        -2.7692    4.6767   -0.6451 H         1 <0>         0.1544
     36 H11        -4.3254    0.9905    0.8950 H         1 <0>         0.1741
     37 H12        -4.4706    1.9248    2.4030 H         1 <0>         0.1471
     38 H13        -5.9340    1.5071    4.3293 H         1 <0>         0.1393
     39 H14        -8.1497    2.5606    4.4686 H         1 <0>         0.1401
     40 H15        -8.9386    4.0493    2.6818 H         1 <0>         0.1610
     41 H16         2.9869    1.5222    1.0388 H         1 <0>         0.2115
@<TRIPOS>BOND
     1    1    2 1
     2    1   28 1
     3    1   29 1
     4    1   30 1
     5    2    3 1
     6    2    4 1
     7    2   27 1
     8    4    5 1
     9    4   31 1
    10    4   32 1
    11    5    6 1
    12    5   33 1
    13    6   11 ar
    14    6    7 ar
    15    7    8 ar
    16    7   34 1
    17    8    9 ar
    18    8   35 1
    19    9   10 ar
    20    9   15 1
    21   10   11 ar
    22   10   36 1
    23   11   12 1
    24   12   13 2
    25   12   14 1
    26   15   26 2
    27   15   16 1
    28   16   21 ar
    29   16   17 ar
    30   17   18 ar
    31   17   37 1
    32   18   19 ar
    33   18   38 1
    34   19   20 ar
    35   19   39 1
    36   20   21 ar
    37   20   40 1
    38   21   22 1
    39   22   23 2
    40   22   24 am
    41   24   25 1
    42   24   26 1
    43   27   41 1
@<TRIPOS>MOLECULE
ZINC03908811
   41    43     0     0     0
SMALL
USER_CHARGES

@<TRIPOS>ATOM
      1 C1          3.5695    1.8048   -1.5333 C.3       1 <0>        -0.2469
      2 C2          2.4337    1.0392   -0.8516 C.3       1 <0>         0.0300
      3 H1          2.2453    0.1115   -1.3920 H         1 <0>         0.1322
      4 C3          1.1670    1.8971   -0.8539 C.3       1 <0>        -0.0505
      5 N1          0.0794    1.1640   -0.2012 N.pl3     1 <0>        -0.3471
      6 C4         -1.1839    1.7450   -0.0878 C.ar      1 <0>         0.1849
      7 C5         -1.3736    3.0717   -0.4592 C.ar      1 <0>        -0.2305
      8 C6         -2.6216    3.6462   -0.3534 C.ar      1 <0>        -0.0023
      9 C7         -3.6931    2.8988    0.1371 C.ar      1 <0>        -0.0971
     10 C8         -3.4988    1.5699    0.5143 C.ar      1 <0>        -0.0210
     11 C9         -2.2497    0.9985    0.4018 C.ar      1 <0>        -0.2060
     12 N2         -2.0428   -0.4117    0.8019 N.pl3     1 <0>         0.5628
     13 O1         -2.9992   -1.1115    1.0832 O.2       1 <0>        -0.3553
     14 O2         -0.9162   -0.8721    0.8498 O.3       1 <0>        -0.3804
     15 C10        -5.0344    3.5154    0.2565 C.ar      1 <0>        -0.0360
     16 C11        -5.8729    3.2337    1.4309 C.ar      1 <0>        -0.0267
     17 C12        -5.4430    2.3918    2.4555 C.ar      1 <0>        -0.1144
     18 C13        -6.2660    2.1597    3.5354 C.ar      1 <0>        -0.1029
     19 C14        -7.5182    2.7551    3.6143 C.ar      1 <0>        -0.1101
     20 C15        -7.9636    3.5897    2.6131 C.ar      1 <0>        -0.1207
     21 C16        -7.1463    3.8385    1.5112 C.ar      1 <0>        -0.1585
     22 C17        -7.5689    4.7202    0.4151 C.ar      1 <0>         0.1420
     23 O3         -8.6592    5.2625    0.4428 O.3       1 <0>        -0.1643
     24 N3         -6.7306    4.9198   -0.6225 N.ar      1 <0>        -0.1460
     25 H2         -9.1402    5.0015    1.2797 H         1 <0>         0.2613
     26 N4         -5.4741    4.3163   -0.6805 N.ar      1 <0>        -0.0214
     27 O4          2.8032    0.7388    0.4958 O.3       1 <0>        -0.3372
     28 H3          3.7580    2.7324   -0.9928 H         1 <0>         0.0759
     29 H4          4.4720    1.1936   -1.5316 H         1 <0>         0.0987
     30 H5          3.2877    2.0339   -2.5609 H         1 <0>         0.0847
     31 H6          0.8851    2.1262   -1.8816 H         1 <0>         0.0907
     32 H7          1.3554    2.8247   -0.3135 H         1 <0>         0.0803
     33 H8          0.2366    0.2730    0.1486 H         1 <0>         0.2832
     34 H9         -0.5431    3.6509   -0.8350 H         1 <0>         0.1494
     35 H10        -2.7695    4.6752   -0.6462 H         1 <0>         0.1586
     36 H11        -4.3264    0.9896    0.8947 H         1 <0>         0.1693
     37 H12        -4.4709    1.9241    2.4026 H         1 <0>         0.1541
     38 H13        -5.9338    1.5075    4.3295 H         1 <0>         0.1426
     39 H14        -8.1494    2.5612    4.4690 H         1 <0>         0.1392
     40 H15        -8.9388    4.0488    2.6815 H         1 <0>         0.1244
     41 H16         2.9861    1.5192    1.0367 H         1 <0>         0.2111
@<TRIPOS>BOND
     1    1    2 1
     2    1   28 1
     3    1   29 1
     4    1   30 1
     5    2    3 1
     6    2    4 1
     7    2   27 1
     8    4    5 1
     9    4   31 1
    10    4   32 1
    11    5    6 1
    12    5   33 1
    13    6   11 ar
    14    6    7 ar
    15    7    8 ar
    16    7   34 1
    17    8    9 ar
    18    8   35 1
    19    9   10 ar
    20    9   15 1
    21   10   11 ar
    22   10   36 1
    23   11   12 1
    24   12   13 2
    25   12   14 1
    26   15   16 ar
    27   15   26 ar
    28   16   17 ar
    29   16   21 ar
    30   17   18 ar
    31   17   37 1
    32   18   19 ar
    33   18   38 1
    34   19   20 ar
    35   19   39 1
    36   20   21 ar
    37   20   40 1
    38   21   22 ar
    39   22   24 ar
    40   22   23 1
    41   23   25 1
    42   24   26 ar
    43   27   41 1
@<TRIPOS>MOLECULE
ZINC03908811
   41    43     0     0     0
SMALL
USER_CHARGES

@<TRIPOS>ATOM
      1 C1          3.5695    1.8048   -1.5333 C.3       1 <0>        -0.2469
      2 C2          2.4337    1.0392   -0.8516 C.3       1 <0>         0.0300
      3 H1          2.2453    0.1115   -1.3920 H         1 <0>         0.1322
      4 C3          1.1670    1.8971   -0.8539 C.3       1 <0>        -0.0505
      5 N1          0.0794    1.1640   -0.2012 N.pl3     1 <0>        -0.3471
      6 C4         -1.1839    1.7450   -0.0878 C.ar      1 <0>         0.1849
      7 C5         -1.3736    3.0717   -0.4592 C.ar      1 <0>        -0.2305
      8 C6         -2.6216    3.6462   -0.3534 C.ar      1 <0>        -0.0023
      9 C7         -3.6931    2.8988    0.1371 C.ar      1 <0>        -0.0971
     10 C8         -3.4988    1.5699    0.5143 C.ar      1 <0>        -0.0210
     11 C9         -2.2497    0.9985    0.4018 C.ar      1 <0>        -0.2060
     12 N2         -2.0428   -0.4117    0.8019 N.pl3     1 <0>         0.5628
     13 O1         -2.9992   -1.1115    1.0832 O.2       1 <0>        -0.3553
     14 O2         -0.9162   -0.8721    0.8498 O.3       1 <0>        -0.3804
     15 C10        -5.0344    3.5154    0.2565 C.ar      1 <0>        -0.0360
     16 C11        -5.8729    3.2337    1.4309 C.ar      1 <0>        -0.0267
     17 C12        -5.4430    2.3918    2.4555 C.ar      1 <0>        -0.1144
     18 C13        -6.2660    2.1597    3.5354 C.ar      1 <0>        -0.1029
     19 C14        -7.5182    2.7551    3.6143 C.ar      1 <0>        -0.1101
     20 C15        -7.9636    3.5897    2.6131 C.ar      1 <0>        -0.1207
     21 C16        -7.1463    3.8385    1.5112 C.ar      1 <0>        -0.1585
     22 C17        -7.5689    4.7202    0.4151 C.ar      1 <0>         0.1420
     23 O3         -8.6592    5.2625    0.4428 O.3       1 <0>        -0.1643
     24 N3         -6.7306    4.9198   -0.6225 N.ar      1 <0>        -0.1460
     25 H2         -9.1402    5.0015    1.2797 H         1 <0>         0.2613
     26 N4         -5.4741    4.3163   -0.6805 N.ar      1 <0>        -0.0214
     27 O4          2.8032    0.7388    0.4958 O.3       1 <0>        -0.3372
     28 H3          3.7580    2.7324   -0.9928 H         1 <0>         0.0759
     29 H4          4.4720    1.1936   -1.5316 H         1 <0>         0.0987
     30 H5          3.2877    2.0339   -2.5609 H         1 <0>         0.0847
     31 H6          0.8851    2.1262   -1.8816 H         1 <0>         0.0907
     32 H7          1.3554    2.8247   -0.3135 H         1 <0>         0.0803
     33 H8          0.2366    0.2730    0.1486 H         1 <0>         0.2832
     34 H9         -0.5431    3.6509   -0.8350 H         1 <0>         0.1494
     35 H10        -2.7695    4.6752   -0.6462 H         1 <0>         0.1586
     36 H11        -4.3264    0.9896    0.8947 H         1 <0>         0.1693
     37 H12        -4.4709    1.9241    2.4026 H         1 <0>         0.1541
     38 H13        -5.9338    1.5075    4.3295 H         1 <0>         0.1426
     39 H14        -8.1494    2.5612    4.4690 H         1 <0>         0.1392
     40 H15        -8.9388    4.0488    2.6815 H         1 <0>         0.1244
     41 H16         2.9861    1.5192    1.0367 H         1 <0>         0.2111
@<TRIPOS>BOND
     1    1    2 1
     2    1   28 1
     3    1   29 1
     4    1   30 1
     5    2    3 1
     6    2    4 1
     7    2   27 1
     8    4    5 1
     9    4   31 1
    10    4   32 1
    11    5    6 1
    12    5   33 1
    13    6   11 ar
    14    6    7 ar
    15    7    8 ar
    16    7   34 1
    17    8    9 ar
    18    8   35 1
    19    9   10 ar
    20    9   15 1
    21   10   11 ar
    22   10   36 1
    23   11   12 1
    24   12   13 2
    25   12   14 1
    26   15   16 ar
    27   15   26 ar
    28   16   17 ar
    29   16   21 ar
    30   17   18 ar
    31   17   37 1
    32   18   19 ar
    33   18   38 1
    34   19   20 ar
    35   19   39 1
    36   20   21 ar
    37   20   40 1
    38   21   22 ar
    39   22   24 ar
    40   22   23 1
    41   23   25 1
    42   24   26 ar
    43   27   41 1
@<TRIPOS>MOLECULE
ZINC03908817
   41    43     0     0     0
SMALL
USER_CHARGES

@<TRIPOS>ATOM
      1 C1         -3.2373    3.1769   -1.7495 C.3       1 <0>        -0.0621
      2 O1         -2.2259    2.8065   -0.8103 O.3       1 <0>        -0.2796
      3 C2         -1.8207    1.4392   -0.9015 C.3       1 <0>        -0.0291
      4 C3         -0.7407    1.1565    0.1447 C.3       1 <0>        -0.0058
      5 N1         -1.3102    1.3033    1.4864 N.pl3     1 <0>        -0.3422
      6 C4         -0.5107    1.0936    2.6103 C.ar      1 <0>         0.1857
      7 C5          0.7906    0.6269    2.4592 C.ar      1 <0>        -0.2246
      8 C6          1.5839    0.4236    3.5674 C.ar      1 <0>        -0.0330
      9 C7          1.0771    0.6766    4.8427 C.ar      1 <0>        -0.0985
     10 C8         -0.2304    1.1397    4.9918 C.ar      1 <0>         0.0092
     11 C9         -1.0182    1.3460    3.8799 C.ar      1 <0>        -0.1953
     12 N2         -2.4056    1.8373    4.0374 N.pl3     1 <0>         0.5530
     13 O2         -2.8660    2.6296    3.2349 O.2       1 <0>        -0.3679
     14 O3         -3.0869    1.4494    4.9695 O.3       1 <0>        -0.3460
     15 C10         1.9256    0.4535    6.0358 C.2       1 <0>        -0.0021
     16 C11         3.3439    0.8401    6.0141 C.ar      1 <0>        -0.0492
     17 C12         3.9300    1.4200    4.8900 C.ar      1 <0>        -0.1288
     18 C13         5.2633    1.7651    4.9198 C.ar      1 <0>        -0.1031
     19 C14         6.0290    1.5416    6.0566 C.ar      1 <0>        -0.1299
     20 C15         5.4706    0.9699    7.1786 C.ar      1 <0>        -0.0620
     21 C16         4.1228    0.6131    7.1698 C.ar      1 <0>        -0.1123
     22 C17         3.4746    0.0009    8.3371 C.2       1 <0>         0.3200
     23 O4          4.1082   -0.2127    9.3553 O.2       1 <0>        -0.3546
     24 N3          2.1668   -0.3205    8.2641 N.am      1 <0>        -0.2835
     25 H1          1.7247   -0.7406    9.0566 H         1 <0>         0.2848
     26 N4          1.4135   -0.0833    7.1140 N.2       1 <0>        -0.0195
     27 H2         -3.4895    4.2289   -1.6158 H         1 <0>         0.1082
     28 H3         -2.8681    3.0178   -2.7627 H         1 <0>         0.0545
     29 H4         -4.1256    2.5667   -1.5864 H         1 <0>         0.0587
     30 H5         -1.4222    1.2440   -1.8971 H         1 <0>         0.0776
     31 H6         -2.6797    0.7929   -0.7208 H         1 <0>         0.0740
     32 H7         -0.3686    0.1400    0.0171 H         1 <0>         0.0869
     33 H8          0.0803    1.8624    0.0192 H         1 <0>         0.0985
     34 H9         -2.2432    1.5463    1.5934 H         1 <0>         0.2641
     35 H10         1.1810    0.4273    1.4722 H         1 <0>         0.1489
     36 H11         2.5958    0.0651    3.4493 H         1 <0>         0.1502
     37 H12        -0.6251    1.3359    5.9778 H         1 <0>         0.1719
     38 H13         3.3424    1.5976    4.0014 H         1 <0>         0.1462
     39 H14         5.7181    2.2144    4.0493 H         1 <0>         0.1357
     40 H15         7.0729    1.8185    6.0610 H         1 <0>         0.1395
     41 H16         6.0725    0.7996    8.0590 H         1 <0>         0.1615
@<TRIPOS>BOND
     1    1    2 1
     2    1   27 1
     3    1   28 1
     4    1   29 1
     5    2    3 1
     6    3    4 1
     7    3   30 1
     8    3   31 1
     9    4    5 1
    10    4   32 1
    11    4   33 1
    12    5    6 1
    13    5   34 1
    14    6   11 ar
    15    6    7 ar
    16    7    8 ar
    17    7   35 1
    18    8    9 ar
    19    8   36 1
    20    9   10 ar
    21    9   15 1
    22   10   11 ar
    23   10   37 1
    24   11   12 1
    25   12   13 2
    26   12   14 1
    27   15   26 2
    28   15   16 1
    29   16   21 ar
    30   16   17 ar
    31   17   18 ar
    32   17   38 1
    33   18   19 ar
    34   18   39 1
    35   19   20 ar
    36   19   40 1
    37   20   21 ar
    38   20   41 1
    39   21   22 1
    40   22   23 2
    41   22   24 am
    42   24   25 1
    43   24   26 1
@<TRIPOS>MOLECULE
ZINC03908817
   41    43     0     0     0
SMALL
USER_CHARGES

@<TRIPOS>ATOM
      1 C1         -3.2367    3.1736   -1.7509 C.3       1 <0>        -0.0621
      2 O1         -2.2254    2.8036   -0.8115 O.3       1 <0>        -0.2792
      3 C2         -1.8198    1.4364   -0.9025 C.3       1 <0>        -0.0291
      4 C3         -0.7399    1.1542    0.1439 C.3       1 <0>        -0.0047
      5 N1         -1.3096    1.3010    1.4855 N.pl3     1 <0>        -0.3447
      6 C4         -0.5102    1.0917    2.6096 C.ar      1 <0>         0.1828
      7 C5          0.7913    0.6253    2.4587 C.ar      1 <0>        -0.2254
      8 C6          1.5845    0.4224    3.5671 C.ar      1 <0>        -0.0409
      9 C7          1.0774    0.6754    4.8423 C.ar      1 <0>        -0.0962
     10 C8         -0.2302    1.1382    4.9911 C.ar      1 <0>         0.0109
     11 C9         -1.0179    1.3441    3.8791 C.ar      1 <0>        -0.1937
     12 N2         -2.4055    1.8351    4.0363 N.pl3     1 <0>         0.5527
     13 O2         -2.8660    2.6272    3.2336 O.2       1 <0>        -0.3718
     14 O3         -3.0868    1.4471    4.9684 O.3       1 <0>        -0.3432
     15 C10         1.9258    0.4527    6.0355 C.ar      1 <0>        -0.0374
     16 C11         3.3440    0.8397    6.0140 C.ar      1 <0>        -0.0246
     17 C12         3.9301    1.4196    4.8899 C.ar      1 <0>        -0.1164
     18 C13         5.2632    1.7655    4.9200 C.ar      1 <0>        -0.1074
     19 C14         6.0289    1.5419    6.0567 C.ar      1 <0>        -0.1115
     20 C15         5.4707    0.9694    7.1784 C.ar      1 <0>        -0.1196
     21 C16         4.1229    0.6126    7.1696 C.ar      1 <0>        -0.1580
     22 C17         3.4749   -0.0001    8.3367 C.ar      1 <0>         0.1400
     23 O4          4.1087   -0.2146    9.3546 O.3       1 <0>        -0.1636
     24 N3          2.1671   -0.3215    8.2637 N.ar      1 <0>        -0.1419
     25 H1          5.0542    0.0854    9.2279 H         1 <0>         0.2603
     26 N4          1.4138   -0.0845    7.1136 N.ar      1 <0>        -0.0152
     27 H2         -3.4892    4.2256   -1.6174 H         1 <0>         0.1076
     28 H3         -2.8674    3.0145   -2.7640 H         1 <0>         0.0537
     29 H4         -4.1249    2.5632   -1.5878 H         1 <0>         0.0587
     30 H5         -1.4211    1.2412   -1.8980 H         1 <0>         0.0764
     31 H6         -2.6786    0.7899   -0.7218 H         1 <0>         0.0741
     32 H7         -0.3675    0.1377    0.0165 H         1 <0>         0.0862
     33 H8          0.0810    1.8603    0.0184 H         1 <0>         0.0969
     34 H9         -2.2427    1.5438    1.5924 H         1 <0>         0.2637
     35 H10         1.1818    0.4257    1.4718 H         1 <0>         0.1463
     36 H11         2.5965    0.0641    3.4492 H         1 <0>         0.1451
     37 H12        -0.6251    1.3345    5.9770 H         1 <0>         0.1759
     38 H13         3.3426    1.5969    4.0011 H         1 <0>         0.1530
     39 H14         5.7179    2.2152    4.0496 H         1 <0>         0.1389
     40 H15         7.0727    1.8191    6.0612 H         1 <0>         0.1385
     41 H16         6.0727    0.7987    8.0587 H         1 <0>         0.1250
@<TRIPOS>BOND
     1    1    2 1
     2    1   27 1
     3    1   28 1
     4    1   29 1
     5    2    3 1
     6    3    4 1
     7    3   30 1
     8    3   31 1
     9    4    5 1
    10    4   32 1
    11    4   33 1
    12    5    6 1
    13    5   34 1
    14    6   11 ar
    15    6    7 ar
    16    7    8 ar
    17    7   35 1
    18    8    9 ar
    19    8   36 1
    20    9   10 ar
    21    9   15 1
    22   10   11 ar
    23   10   37 1
    24   11   12 1
    25   12   13 2
    26   12   14 1
    27   15   16 ar
    28   15   26 ar
    29   16   17 ar
    30   16   21 ar
    31   17   18 ar
    32   17   38 1
    33   18   19 ar
    34   18   39 1
    35   19   20 ar
    36   19   40 1
    37   20   21 ar
    38   20   41 1
    39   21   22 ar
    40   22   24 ar
    41   22   23 1
    42   23   25 1
    43   24   26 ar
@<TRIPOS>MOLECULE
ZINC03908817
   41    43     0     0     0
SMALL
USER_CHARGES

@<TRIPOS>ATOM
      1 C1         -3.2367    3.1736   -1.7509 C.3       1 <0>        -0.0621
      2 O1         -2.2254    2.8036   -0.8115 O.3       1 <0>        -0.2792
      3 C2         -1.8198    1.4364   -0.9025 C.3       1 <0>        -0.0291
      4 C3         -0.7399    1.1542    0.1439 C.3       1 <0>        -0.0047
      5 N1         -1.3096    1.3010    1.4855 N.pl3     1 <0>        -0.3447
      6 C4         -0.5102    1.0917    2.6096 C.ar      1 <0>         0.1828
      7 C5          0.7913    0.6253    2.4587 C.ar      1 <0>        -0.2254
      8 C6          1.5845    0.4224    3.5671 C.ar      1 <0>        -0.0409
      9 C7          1.0774    0.6754    4.8423 C.ar      1 <0>        -0.0962
     10 C8         -0.2302    1.1382    4.9911 C.ar      1 <0>         0.0109
     11 C9         -1.0179    1.3441    3.8791 C.ar      1 <0>        -0.1937
     12 N2         -2.4055    1.8351    4.0363 N.pl3     1 <0>         0.5527
     13 O2         -2.8660    2.6272    3.2336 O.2       1 <0>        -0.3718
     14 O3         -3.0868    1.4471    4.9684 O.3       1 <0>        -0.3432
     15 C10         1.9258    0.4527    6.0355 C.ar      1 <0>        -0.0374
     16 C11         3.3440    0.8397    6.0140 C.ar      1 <0>        -0.0246
     17 C12         3.9301    1.4196    4.8899 C.ar      1 <0>        -0.1164
     18 C13         5.2632    1.7655    4.9200 C.ar      1 <0>        -0.1074
     19 C14         6.0289    1.5419    6.0567 C.ar      1 <0>        -0.1115
     20 C15         5.4707    0.9694    7.1784 C.ar      1 <0>        -0.1196
     21 C16         4.1229    0.6126    7.1696 C.ar      1 <0>        -0.1580
     22 C17         3.4749   -0.0001    8.3367 C.ar      1 <0>         0.1400
     23 O4          4.1087   -0.2146    9.3546 O.3       1 <0>        -0.1636
     24 N3          2.1671   -0.3215    8.2637 N.ar      1 <0>        -0.1419
     25 H1          5.0542    0.0854    9.2279 H         1 <0>         0.2603
     26 N4          1.4138   -0.0845    7.1136 N.ar      1 <0>        -0.0152
     27 H2         -3.4892    4.2256   -1.6174 H         1 <0>         0.1076
     28 H3         -2.8674    3.0145   -2.7640 H         1 <0>         0.0537
     29 H4         -4.1249    2.5632   -1.5878 H         1 <0>         0.0587
     30 H5         -1.4211    1.2412   -1.8980 H         1 <0>         0.0764
     31 H6         -2.6786    0.7899   -0.7218 H         1 <0>         0.0741
     32 H7         -0.3675    0.1377    0.0165 H         1 <0>         0.0862
     33 H8          0.0810    1.8603    0.0184 H         1 <0>         0.0969
     34 H9         -2.2427    1.5438    1.5924 H         1 <0>         0.2637
     35 H10         1.1818    0.4257    1.4718 H         1 <0>         0.1463
     36 H11         2.5965    0.0641    3.4492 H         1 <0>         0.1451
     37 H12        -0.6251    1.3345    5.9770 H         1 <0>         0.1759
     38 H13         3.3426    1.5969    4.0011 H         1 <0>         0.1530
     39 H14         5.7179    2.2152    4.0496 H         1 <0>         0.1389
     40 H15         7.0727    1.8191    6.0612 H         1 <0>         0.1385
     41 H16         6.0727    0.7987    8.0587 H         1 <0>         0.1250
@<TRIPOS>BOND
     1    1    2 1
     2    1   27 1
     3    1   28 1
     4    1   29 1
     5    2    3 1
     6    3    4 1
     7    3   30 1
     8    3   31 1
     9    4    5 1
    10    4   32 1
    11    4   33 1
    12    5    6 1
    13    5   34 1
    14    6   11 ar
    15    6    7 ar
    16    7    8 ar
    17    7   35 1
    18    8    9 ar
    19    8   36 1
    20    9   10 ar
    21    9   15 1
    22   10   11 ar
    23   10   37 1
    24   11   12 1
    25   12   13 2
    26   12   14 1
    27   15   16 ar
    28   15   26 ar
    29   16   17 ar
    30   16   21 ar
    31   17   18 ar
    32   17   38 1
    33   18   19 ar
    34   18   39 1
    35   19   20 ar
    36   19   40 1
    37   20   21 ar
    38   20   41 1
    39   21   22 ar
    40   22   24 ar
    41   22   23 1
    42   23   25 1
    43   24   26 ar
@<TRIPOS>MOLECULE
ZINC03909297
   41    43     0     0     0
SMALL
USER_CHARGES

@<TRIPOS>ATOM
      1 C1         -1.2574    8.0308   -1.9585 C.3       1 <0>        -0.2539
      2 C2         -1.2619    6.5299   -2.0939 C.2       1 <0>         0.2675
      3 O1         -1.3143    6.0205   -3.1930 O.2       1 <0>        -0.2923
      4 C3         -1.2025    5.6823   -0.8919 C.ar      1 <0>        -0.1503
      5 C4         -1.1424    6.2682    0.3777 C.ar      1 <0>        -0.1082
      6 C5         -1.0876    5.4746    1.5054 C.ar      1 <0>        -0.1316
      7 C6         -1.0961    4.0983    1.3912 C.ar      1 <0>        -0.1027
      8 C7         -1.1505    3.4979    0.1298 C.ar      1 <0>        -0.0031
      9 C8         -1.2065    4.2921   -1.0149 C.ar      1 <0>        -0.0797
     10 N1         -1.1544    2.1346    0.0192 N.2       1 <0>        -0.1215
     11 C9         -0.0178    1.4725    0.0053 C.2       1 <0>         0.1681
     12 C10         0.0028   -0.0037    0.0038 C.2       1 <0>        -0.1388
     13 C11         1.1066   -0.6200   -0.5707 C.2       1 <0>        -0.0361
     14 C12         2.1497    0.2470   -1.1237 C.ar      1 <0>        -0.1064
     15 C13         3.1523   -0.2767   -1.9485 C.ar      1 <0>        -0.1084
     16 C14         4.1225    0.5631   -2.4592 C.ar      1 <0>         0.0738
     17 C15         4.1042    1.9219   -2.1573 C.ar      1 <0>        -0.1716
     18 C16         3.1211    2.4478   -1.3446 C.ar      1 <0>        -0.1051
     19 C17         2.1389    1.6212   -0.8195 C.ar      1 <0>         0.0758
     20 O2          1.1719    2.1257   -0.0138 O.3       1 <0>        -0.1603
     21 O3          5.0992    0.0607   -3.2604 O.3       1 <0>        -0.2098
     22 C18         6.0715    0.9839   -3.7549 C.3       1 <0>        -0.0641
     23 C19        -1.0994   -0.7883    0.5859 C.2       1 <0>         0.3522
     24 O4         -2.0539   -0.2209    1.0821 O.2       1 <0>        -0.3220
     25 N2         -1.0503   -2.1351    0.5686 N.am      1 <0>        -0.4327
     26 H1         -0.3147    8.3641   -1.9741 H         1 <0>         0.0970
     27 H2         -1.8125    8.4720   -2.7864 H         1 <0>         0.1060
     28 H3         -1.7266    8.3120   -1.0157 H         1 <0>         0.0909
     29 H4         -1.1392    7.3438    0.4752 H         1 <0>         0.1310
     30 H5         -1.0414    5.9323    2.4826 H         1 <0>         0.1334
     31 H6         -1.0569    3.4841    2.2786 H         1 <0>         0.1453
     32 H7         -1.2532    3.8337   -1.9918 H         1 <0>         0.1591
     33 H8          1.1926   -1.6960   -0.6081 H         1 <0>         0.1463
     34 H9          3.1673   -1.3307   -2.1836 H         1 <0>         0.1511
     35 H10         4.8664    2.5705   -2.5633 H         1 <0>         0.1462
     36 H11         3.1164    3.5036   -1.1171 H         1 <0>         0.1548
     37 H12         6.7911    0.4541   -4.3792 H         1 <0>         0.1130
     38 H13         5.5746    1.7531   -4.3460 H         1 <0>         0.0707
     39 H14         6.5906    1.4486   -2.9166 H         1 <0>         0.0690
     40 H15        -0.2890   -2.5876    0.1729 H         1 <0>         0.2104
     41 H16        -1.7761   -2.6518    0.9520 H         1 <0>         0.2371
@<TRIPOS>BOND
     1    1    2 1
     2    1   26 1
     3    1   27 1
     4    1   28 1
     5    2    3 2
     6    2    4 1
     7    4    9 ar
     8    4    5 ar
     9    5    6 ar
    10    5   29 1
    11    6    7 ar
    12    6   30 1
    13    7    8 ar
    14    7   31 1
    15    8    9 ar
    16    8   10 1
    17    9   32 1
    18   10   11 2
    19   11   20 1
    20   11   12 1
    21   12   13 2
    22   12   23 1
    23   13   14 1
    24   13   33 1
    25   14   19 ar
    26   14   15 ar
    27   15   16 ar
    28   15   34 1
    29   16   17 ar
    30   16   21 1
    31   17   18 ar
    32   17   35 1
    33   18   19 ar
    34   18   36 1
    35   19   20 1
    36   21   22 1
    37   22   37 1
    38   22   38 1
    39   22   39 1
    40   23   24 2
    41   23   25 am
    42   25   40 1
    43   25   41 1
@<TRIPOS>MOLECULE
ZINC03911020
   42    44     0     0     0
SMALL
USER_CHARGES

@<TRIPOS>ATOM
      1 C1         -8.5561   -1.0979    0.0364 C.3       1 <0>        -0.1851
      2 C2         -7.2384   -0.3666    0.0263 C.ar      1 <0>        -0.0092
      3 C3         -6.0611   -1.0773    0.1227 C.ar      1 <0>        -0.1832
      4 C4         -4.8435   -0.4050    0.1136 C.ar      1 <0>         0.0598
      5 C5         -4.8240    0.9987    0.0058 C.ar      1 <0>        -0.0809
      6 C6         -6.0371    1.6983   -0.0911 C.ar      1 <0>        -0.0370
      7 C7         -7.2196    1.0174   -0.0805 C.ar      1 <0>        -0.1085
      8 C8         -8.5179    1.7753   -0.1854 C.3       1 <0>        -0.1750
      9 N1         -3.6580    1.6708    0.0008 N.2       1 <0>        -0.0763
     10 C9         -2.5124    1.0368    0.0851 C.2       1 <0>        -0.0428
     11 C10        -2.4894   -0.4337    0.1996 C.2       1 <0>         0.2868
     12 O1         -1.4313   -1.0294    0.2829 O.2       1 <0>        -0.3314
     13 N2         -3.6587   -1.1102    0.2103 N.am      1 <0>        -0.2763
     14 H1         -3.6669   -2.1072    0.2871 H         1 <0>         0.2600
     15 C11        -1.2447    1.7967    0.0716 C.ar      1 <0>        -0.0711
     16 C12        -0.9351    2.6639    1.1204 C.ar      1 <0>        -0.0148
     17 C13         0.2516    3.3659    1.1050 C.ar      1 <0>        -0.1431
     18 C14         1.1372    3.2185    0.0503 C.ar      1 <0>        -0.0399
     19 C15         0.8410    2.3681   -0.9969 C.ar      1 <0>        -0.1546
     20 C16        -0.3489    1.6544   -0.9976 C.ar      1 <0>         0.1467
     21 N3         -0.6500    0.7947   -2.0547 N.am      1 <0>        -0.3154
     22 C17         0.3429    0.2651   -2.7964 C.2       1 <0>         0.3077
     23 O2          1.4997    0.4557   -2.4858 O.2       1 <0>        -0.3423
     24 C18         0.0158   -0.5638   -4.0116 C.3       1 <0>        -0.2401
     25 N4          0.5808    4.2809    2.2210 N.pl3     1 <0>         0.5536
     26 O3         -0.1958    4.4124    3.1501 O.2       1 <0>        -0.3617
     27 O4          1.6282    4.9024    2.2102 O.3       1 <0>        -0.3592
     28 H2         -8.9098   -1.1950    1.0629 H         1 <0>         0.0977
     29 H3         -9.2865   -0.5386   -0.5482 H         1 <0>         0.0941
     30 H4         -8.4250   -2.0889   -0.3980 H         1 <0>         0.0865
     31 H5         -6.0841   -2.1539    0.2048 H         1 <0>         0.1410
     32 H6         -6.0346    2.7751   -0.1739 H         1 <0>         0.1578
     33 H7         -8.8672    2.0376    0.8133 H         1 <0>         0.0920
     34 H8         -8.3620    2.6844   -0.7661 H         1 <0>         0.0866
     35 H9         -9.2636    1.1522   -0.6791 H         1 <0>         0.0870
     36 H10        -1.6222    2.7816    1.9453 H         1 <0>         0.1723
     37 H11         2.0646    3.7720    0.0466 H         1 <0>         0.1687
     38 H12         1.5360    2.2588   -1.8162 H         1 <0>         0.1892
     39 H13        -1.5740    0.5783   -2.2557 H         1 <0>         0.2385
     40 H14        -0.5501    0.0395   -4.7215 H         1 <0>         0.0977
     41 H15         0.9399   -0.9036   -4.4792 H         1 <0>         0.1232
     42 H16        -0.5792   -1.4271   -3.7132 H         1 <0>         0.1010
@<TRIPOS>BOND
     1    1    2 1
     2    1   28 1
     3    1   29 1
     4    1   30 1
     5    2    7 ar
     6    2    3 ar
     7    3    4 ar
     8    3   31 1
     9    4   13 1
    10    4    5 ar
    11    5    6 ar
    12    5    9 1
    13    6    7 ar
    14    6   32 1
    15    7    8 1
    16    8   33 1
    17    8   34 1
    18    8   35 1
    19    9   10 2
    20   10   11 1
    21   10   15 1
    22   11   12 2
    23   11   13 am
    24   13   14 1
    25   15   20 ar
    26   15   16 ar
    27   16   17 ar
    28   16   36 1
    29   17   18 ar
    30   17   25 1
    31   18   19 ar
    32   18   37 1
    33   19   20 ar
    34   19   38 1
    35   20   21 1
    36   21   22 am
    37   21   39 1
    38   22   23 2
    39   22   24 1
    40   24   40 1
    41   24   41 1
    42   24   42 1
    43   25   26 2
    44   25   27 1
@<TRIPOS>MOLECULE
ZINC03911072
   42    44     0     0     0
SMALL
USER_CHARGES

@<TRIPOS>ATOM
      1 C1          0.5748    7.2702    0.0471 C.3       1 <0>        -0.1616
      2 C2          0.8008    5.7803    0.0343 C.ar      1 <0>         0.0022
      3 C3          2.0944    5.2787    0.0137 C.ar      1 <0>         0.0468
      4 C4          2.2800    3.8834    0.0101 C.ar      1 <0>        -0.1080
      5 C5          3.6373    3.3333    0.0018 C.2       1 <0>        -0.0002
      6 C6          4.6723    4.2015    0.2700 C.2       1 <0>        -0.1542
      7 C7          4.3205    5.6094    0.5444 C.2       1 <0>         0.1713
      8 N1          5.0984    6.3677    1.2841 N.2       1 <0>        -0.1745
      9 C8          4.8113    7.6963    1.4395 C.ar      1 <0>        -0.0265
     10 C9          5.2479    8.6240    0.4923 C.ar      1 <0>        -0.1019
     11 C10         4.9550    9.9627    0.6548 C.ar      1 <0>        -0.1540
     12 C11         4.2303   10.3894    1.7537 C.ar      1 <0>        -0.0971
     13 C12         3.7920    9.4791    2.6986 C.ar      1 <0>        -0.2106
     14 C13         4.0724    8.1324    2.5473 C.ar      1 <0>         0.0913
     15 O1          3.6375    7.2367    3.4728 O.3       1 <0>        -0.2031
     16 C14         2.8900    7.7542    4.5753 C.3       1 <0>        -0.0634
     17 O2          3.1710    6.0996   -0.0002 O.3       1 <0>        -0.1502
     18 C15         6.0740    3.7440    0.2831 C.2       1 <0>         0.3657
     19 O3          6.3354    2.5787    0.0541 O.2       1 <0>        -0.3841
     20 N2          7.0654    4.6174    0.5490 N.am      1 <0>        -0.4130
     21 C16         1.1500    3.0569    0.0121 C.ar      1 <0>        -0.0903
     22 C17        -0.0967    3.6475    0.0315 C.ar      1 <0>        -0.0383
     23 N3         -0.2313    4.9609    0.0423 N.ar      1 <0>        -0.1338
     24 C18         1.2922    1.5567   -0.0003 C.3       1 <0>         0.0388
     25 O4         -0.0040    0.9552    0.0112 O.3       1 <0>        -0.3551
     26 H1          0.5337    7.6226    1.0777 H         1 <0>         0.0962
     27 H2          1.3935    7.7663   -0.4742 H         1 <0>         0.0982
     28 H3         -0.3662    7.4993   -0.4531 H         1 <0>         0.1006
     29 H4          3.8192    2.2892   -0.2058 H         1 <0>         0.1746
     30 H5          5.8138    8.2946   -0.3666 H         1 <0>         0.1399
     31 H6          5.2930   10.6802   -0.0782 H         1 <0>         0.1336
     32 H7          4.0053   11.4389    1.8741 H         1 <0>         0.1311
     33 H8          3.2262    9.8193    3.5533 H         1 <0>         0.1375
     34 H9          2.6049    6.9362    5.2369 H         1 <0>         0.1107
     35 H10         3.5016    8.4697    5.1250 H         1 <0>         0.0694
     36 H11         1.9935    8.2514    4.2051 H         1 <0>         0.0666
     37 H12         6.8569    5.5469    0.7317 H         1 <0>         0.2459
     38 H13         7.9875    4.3164    0.5576 H         1 <0>         0.2292
     39 H14        -0.9785    3.0240    0.0377 H         1 <0>         0.1901
     40 H15         1.8489    1.2372    0.8807 H         1 <0>         0.0801
     41 H16         1.8272    1.2499   -0.8991 H         1 <0>         0.0783
     42 H17         0.0110   -0.0116    0.0042 H         1 <0>         0.2220
@<TRIPOS>BOND
     1    1    2 1
     2    1   26 1
     3    1   27 1
     4    1   28 1
     5    2   23 ar
     6    2    3 ar
     7    3   17 1
     8    3    4 ar
     9    4    5 1
    10    4   21 ar
    11    5    6 2
    12    5   29 1
    13    6    7 1
    14    6   18 1
    15    7    8 2
    16    7   17 1
    17    8    9 1
    18    9   14 ar
    19    9   10 ar
    20   10   11 ar
    21   10   30 1
    22   11   12 ar
    23   11   31 1
    24   12   13 ar
    25   12   32 1
    26   13   14 ar
    27   13   33 1
    28   14   15 1
    29   15   16 1
    30   16   34 1
    31   16   35 1
    32   16   36 1
    33   18   19 2
    34   18   20 am
    35   20   37 1
    36   20   38 1
    37   21   22 ar
    38   21   24 1
    39   22   23 ar
    40   22   39 1
    41   24   25 1
    42   24   40 1
    43   24   41 1
    44   25   42 1
@<TRIPOS>MOLECULE
ZINC03912073
   45    47     0     0     0
SMALL
USER_CHARGES

@<TRIPOS>ATOM
      1 C1          0.0018   -0.0041   -0.0306 C.3       1 <0>        -0.2167
      2 C2         -0.0188    1.5027   -0.0405 C.2       1 <0>        -0.0506
      3 N1         -1.1518    2.1365   -0.0318 N.2       1 <0>        -0.0042
      4 N2         -2.3553    1.4196   -0.0132 N.am      1 <0>        -0.3309
      5 C3         -3.5316    2.0776   -0.0042 C.2       1 <0>         0.3607
      6 O1         -3.5482    3.2934   -0.0122 O.2       1 <0>        -0.3133
      7 C4         -4.8013    1.3212    0.0154 C.ar      1 <0>        -0.0982
      8 C5         -4.7850   -0.0751    0.0188 C.ar      1 <0>        -0.1389
      9 C6         -5.9717   -0.7786    0.0430 C.ar      1 <0>        -0.1115
     10 C7         -7.1796   -0.1059    0.0523 C.ar      1 <0>        -0.1575
     11 C8         -7.2066    1.2834    0.0433 C.ar      1 <0>         0.0794
     12 C9         -6.0199    1.9998    0.0248 C.ar      1 <0>        -0.1008
     13 N3         -8.4320    1.9595    0.0523 N.am      1 <0>        -0.2853
     14 C10        -9.7407    1.3031   -0.0507 C.3       1 <0>        -0.0240
     15 C11       -10.7340    2.4223   -0.4342 C.3       1 <0>        -0.1775
     16 C12       -10.0242    3.6782    0.1225 C.3       1 <0>        -0.1977
     17 C13        -8.5618    3.2929    0.1621 C.2       1 <0>         0.3098
     18 O2         -7.6404    4.0736    0.2740 O.2       1 <0>        -0.3266
     19 C14         1.2472    2.2568   -0.0662 C.ar      1 <0>        -0.1001
     20 C15         2.4681    1.5762   -0.0757 C.ar      1 <0>        -0.0643
     21 C16         3.6491    2.2843   -0.1055 C.ar      1 <0>        -0.2174
     22 C17         3.6282    3.6750   -0.1146 C.ar      1 <0>         0.1333
     23 C18         2.4153    4.3558   -0.0995 C.ar      1 <0>        -0.2167
     24 C19         1.2301    3.6545   -0.0754 C.ar      1 <0>        -0.0367
     25 N4          4.8262    4.3887   -0.1394 N.pl3     1 <0>        -0.4159
     26 H1          0.0235   -0.3605    0.9992 H         1 <0>         0.0958
     27 H2         -0.8914   -0.3830   -0.5275 H         1 <0>         0.0772
     28 H3          0.8882   -0.3588   -0.5566 H         1 <0>         0.0967
     29 H4         -2.3421    0.4497   -0.0069 H         1 <0>         0.2103
     30 H5         -3.8436   -0.6043    0.0067 H         1 <0>         0.1219
     31 H6         -5.9571   -1.8585    0.0501 H         1 <0>         0.1328
     32 H7         -8.1052   -0.6621    0.0663 H         1 <0>         0.1312
     33 H8         -6.0389    3.0796    0.0181 H         1 <0>         0.2086
     34 H9         -9.7184    0.5368   -0.8255 H         1 <0>         0.0965
     35 H10       -10.0188    0.8639    0.9073 H         1 <0>         0.0909
     36 H11       -10.8500    2.4871   -1.5161 H         1 <0>         0.1023
     37 H12       -11.6983    2.2712    0.0511 H         1 <0>         0.1014
     38 H13       -10.1794    4.5295   -0.5404 H         1 <0>         0.1234
     39 H14       -10.3840    3.9066    1.1257 H         1 <0>         0.1195
     40 H15         2.4852    0.4964   -0.0638 H         1 <0>         0.1286
     41 H16         4.5927    1.7590   -0.1177 H         1 <0>         0.1292
     42 H17         2.4029    5.4357   -0.1069 H         1 <0>         0.1338
     43 H18         0.2888    4.1838   -0.0640 H         1 <0>         0.1612
     44 H19         4.8129    5.3585   -0.1461 H         1 <0>         0.2213
     45 H20         5.6727    3.9151   -0.1500 H         1 <0>         0.2192
@<TRIPOS>BOND
     1    1    2 1
     2    1   26 1
     3    1   27 1
     4    1   28 1
     5    2    3 2
     6    2   19 1
     7    3    4 1
     8    4    5 am
     9    4   29 1
    10    5    6 2
    11    5    7 1
    12    7   12 ar
    13    7    8 ar
    14    8    9 ar
    15    8   30 1
    16    9   10 ar
    17    9   31 1
    18   10   11 ar
    19   10   32 1
    20   11   12 ar
    21   11   13 1
    22   12   33 1
    23   13   17 am
    24   13   14 1
    25   14   15 1
    26   14   34 1
    27   14   35 1
    28   15   16 1
    29   15   36 1
    30   15   37 1
    31   16   17 1
    32   16   38 1
    33   16   39 1
    34   17   18 2
    35   19   24 ar
    36   19   20 ar
    37   20   21 ar
    38   20   40 1
    39   21   22 ar
    40   21   41 1
    41   22   23 ar
    42   22   25 1
    43   23   24 ar
    44   23   42 1
    45   24   43 1
    46   25   44 1
    47   25   45 1
@<TRIPOS>MOLECULE
ZINC03912150
   44    45     0     0     0
SMALL
USER_CHARGES

@<TRIPOS>ATOM
      1 C1         -0.7661    2.1304    2.6361 C.3       1 <0>        -0.1981
      2 C2         -0.1488    2.0877    1.2368 C.3       1 <0>        -0.0400
      3 C3          1.0067    3.0875    1.1583 C.3       1 <0>        -0.2048
      4 C4         -1.2117    2.4542    0.1991 C.3       1 <0>        -0.1981
      5 C5          0.3680    0.6998    0.9579 C.ar      1 <0>        -0.0050
      6 C6         -0.4990   -0.3767    0.9735 C.ar      1 <0>        -0.1512
      7 C7         -0.0250   -1.6497    0.7172 C.ar      1 <0>        -0.0303
      8 C8          1.3160   -1.8462    0.4454 C.ar      1 <0>        -0.7623
      9 C9          2.1830   -0.7696    0.4294 C.ar      1 <0>        -0.0120
     10 C10         1.7088    0.5035    0.6847 C.ar      1 <0>        -0.1557
     11 S1          1.9204   -3.4690    0.1200 S.o2      1 <0>         2.7758
     12 O1          3.3066   -3.4563    0.4323 O.2       1 <0>        -0.8941
     13 O2          1.0098   -4.3719    0.7322 O.2       1 <0>        -0.9150
     14 N1          1.8055   -3.7158   -1.5135 N.pl3     1 <0>        -0.8246
     15 N2          2.4950   -2.8771   -2.3989 N.2       1 <0>         0.0010
     16 C11         2.3045   -2.9868   -3.6777 C.2       1 <0>        -0.0902
     17 C12         1.2078   -3.8280   -4.1901 C.ar      1 <0>        -0.1371
     18 C13         0.0707   -4.0493   -3.4098 C.ar      1 <0>        -0.1099
     19 C14        -0.9526   -4.8365   -3.8925 C.ar      1 <0>        -0.1598
     20 C15        -0.8571   -5.4114   -5.1537 C.ar      1 <0>         0.0998
     21 C16         0.2684   -5.1975   -5.9362 C.ar      1 <0>        -0.1783
     22 C17         1.2995   -4.4043   -5.4645 C.ar      1 <0>         0.1099
     23 O3          2.3994   -4.1891   -6.2321 O.3       1 <0>        -0.2895
     24 O4         -1.8701   -6.1859   -5.6228 O.3       1 <0>        -0.2890
     25 H1         -0.0088    1.8693    3.3754 H         1 <0>         0.0819
     26 H2         -1.1399    3.1343    2.8378 H         1 <0>         0.0784
     27 H3         -1.5892    1.4181    2.6920 H         1 <0>         0.0768
     28 H4          1.4464    3.0571    0.1614 H         1 <0>         0.0787
     29 H5          0.6328    4.0913    1.3600 H         1 <0>         0.0788
     30 H6          1.7639    2.8264    1.8976 H         1 <0>         0.0801
     31 H7         -2.0349    1.7419    0.2550 H         1 <0>         0.0759
     32 H8         -1.5855    3.4580    0.4008 H         1 <0>         0.0788
     33 H9         -0.7720    2.4237   -0.7978 H         1 <0>         0.0799
     34 H10        -1.5476   -0.2226    1.1814 H         1 <0>         0.1369
     35 H11        -0.7024   -2.4908    0.7298 H         1 <0>         0.1448
     36 H12         3.2308   -0.9232    0.2177 H         1 <0>         0.1561
     37 H13         2.3862    1.3446    0.6725 H         1 <0>         0.1440
     38 H14         1.2608   -4.4411   -1.8573 H         1 <0>         0.2427
     39 H15         2.9495   -2.4617   -4.3668 H         1 <0>         0.1928
     40 H16        -0.0066   -3.6041   -2.4289 H         1 <0>         0.1531
     41 H17        -1.8316   -5.0066   -3.2885 H         1 <0>         0.1492
     42 H18         0.3376   -5.6464   -6.9160 H         1 <0>         0.1562
     43 H19         3.1309   -4.7948   -6.0498 H         1 <0>         0.2380
     44 H20        -2.5450   -5.6964   -6.1129 H         1 <0>         0.2354
@<TRIPOS>BOND
     1    1    2 1
     2    1   25 1
     3    1   26 1
     4    1   27 1
     5    2    3 1
     6    2    4 1
     7    2    5 1
     8    3   28 1
     9    3   29 1
    10    3   30 1
    11    4   31 1
    12    4   32 1
    13    4   33 1
    14    5   10 ar
    15    5    6 ar
    16    6    7 ar
    17    6   34 1
    18    7    8 ar
    19    7   35 1
    20    8    9 ar
    21    8   11 1
    22    9   10 ar
    23    9   36 1
    24   10   37 1
    25   11   12 2
    26   11   13 2
    27   11   14 1
    28   14   15 1
    29   14   38 1
    30   15   16 2
    31   16   17 1
    32   16   39 1
    33   17   22 ar
    34   17   18 ar
    35   18   19 ar
    36   18   40 1
    37   19   20 ar
    38   19   41 1
    39   20   21 ar
    40   20   24 1
    41   21   22 ar
    42   21   42 1
    43   22   23 1
    44   23   43 1
    45   24   44 1
@<TRIPOS>MOLECULE
ZINC03912239
   41    42     0     0     0
SMALL
USER_CHARGES

@<TRIPOS>ATOM
      1 C1          0.1373    0.3818   -0.2575 C.3       1 <0>        -0.2061
      2 C2          0.9487    0.4101    1.0394 C.3       1 <0>        -0.1302
      3 C3          0.1149    1.0128    2.1406 C.ar      1 <0>        -0.0450
      4 C4          0.1524    2.3776    2.3646 C.ar      1 <0>        -0.1422
      5 C5         -0.6129    2.9363    3.3675 C.ar      1 <0>        -0.0857
      6 C6         -1.4172    2.1202    4.1640 C.ar      1 <0>        -0.1512
      7 C7         -1.4462    0.7437    3.9365 C.ar      1 <0>        -0.0675
      8 C8         -0.6805    0.1982    2.9268 C.ar      1 <0>        -0.1423
      9 C9         -2.2364    2.7122    5.2452 C.2       1 <0>         0.3305
     10 O1         -2.9379    1.9975    5.9387 O.2       1 <0>        -0.3624
     11 C10        -2.2049    4.1054    5.4728 C.2       1 <0>        -0.3778
     12 C11        -3.0449    4.6625    6.3746 C.2       1 <0>         0.0837
     13 N1         -4.0353    3.9112    6.9404 N.pl3     1 <0>        -0.2580
     14 C12        -4.8273    4.4509    7.9572 C.ar      1 <0>         0.1307
     15 C13        -4.6051    5.7496    8.3977 C.ar      1 <0>        -0.2167
     16 C14        -5.3940    6.2822    9.3982 C.ar      1 <0>         0.0114
     17 C15        -6.3961    5.5199    9.9704 C.ar      1 <0>        -0.8010
     18 C16        -6.6160    4.2247    9.5385 C.ar      1 <0>         0.0104
     19 C17        -5.8351    3.6881    8.5339 C.ar      1 <0>        -0.1977
     20 S1         -7.3952    6.2007   11.2521 S.o2      1 <0>         2.7656
     21 O2         -7.3469    7.6125   11.0982 O.2       1 <0>        -0.9200
     22 O3         -8.6168    5.4748   11.2437 O.2       1 <0>        -0.9187
     23 N2         -6.6495    5.8555   12.6898 N.pl3     1 <0>        -0.9316
     24 H1         -0.7605   -0.2187   -0.1113 H         1 <0>         0.0786
     25 H2         -0.1460    1.3982   -0.5310 H         1 <0>         0.0777
     26 H3          0.7404   -0.0541   -1.0539 H         1 <0>         0.0754
     27 H4          1.2320   -0.6063    1.3129 H         1 <0>         0.0899
     28 H5          1.8465    1.0106    0.8932 H         1 <0>         0.0890
     29 H6          0.7787    3.0075    1.7503 H         1 <0>         0.1331
     30 H7         -0.5861    4.0023    3.5385 H         1 <0>         0.1334
     31 H8         -2.0669    0.1069    4.5493 H         1 <0>         0.1504
     32 H9         -0.7023   -0.8669    2.7495 H         1 <0>         0.1350
     33 H10        -1.5099    4.7262    4.9268 H         1 <0>         0.1489
     34 H11        -2.9326    5.7015    6.6472 H         1 <0>         0.1535
     35 H12        -4.1888    3.0030    6.6364 H         1 <0>         0.2864
     36 H13        -3.8195    6.3438    7.9546 H         1 <0>         0.1383
     37 H14        -5.2254    7.2936    9.7373 H         1 <0>         0.1549
     38 H15        -7.3996    3.6322    9.9873 H         1 <0>         0.1568
     39 H16        -6.0078    2.6768    8.1966 H         1 <0>         0.1476
     40 H17        -5.8154    5.3604   12.6970 H         1 <0>         0.2298
     41 H18        -7.0468    6.1484   13.5249 H         1 <0>         0.2432
@<TRIPOS>BOND
     1    1    2 1
     2    1   24 1
     3    1   25 1
     4    1   26 1
     5    2    3 1
     6    2   27 1
     7    2   28 1
     8    3    8 ar
     9    3    4 ar
    10    4    5 ar
    11    4   29 1
    12    5    6 ar
    13    5   30 1
    14    6    7 ar
    15    6    9 1
    16    7    8 ar
    17    7   31 1
    18    8   32 1
    19    9   10 2
    20    9   11 1
    21   11   12 2
    22   11   33 1
    23   12   13 1
    24   12   34 1
    25   13   14 1
    26   13   35 1
    27   14   19 ar
    28   14   15 ar
    29   15   16 ar
    30   15   36 1
    31   16   17 ar
    32   16   37 1
    33   17   18 ar
    34   17   20 1
    35   18   19 ar
    36   18   38 1
    37   19   39 1
    38   20   21 2
    39   20   22 2
    40   20   23 1
    41   23   40 1
    42   23   41 1
@<TRIPOS>MOLECULE
ZINC03912301
   44    46     0     0     0
SMALL
USER_CHARGES

@<TRIPOS>ATOM
      1 C1          1.8089    0.2632   -2.0587 C.3       1 <0>        -0.1710
      2 C2          1.5078   -1.2123   -1.9990 C.ar      1 <0>        -0.1001
      3 C3          1.7804   -1.9259   -0.8463 C.ar      1 <0>        -0.1036
      4 C4          1.5012   -3.2772   -0.7867 C.ar      1 <0>        -0.1551
      5 C5          0.9556   -3.9212   -1.8894 C.ar      1 <0>         0.0802
      6 C6          0.6879   -3.2028   -3.0473 C.ar      1 <0>        -0.1649
      7 C7          0.9650   -1.8507   -3.0989 C.ar      1 <0>        -0.1045
      8 N1          0.6756   -5.2911   -1.8338 N.am      1 <0>        -0.2723
      9 C8         -0.0042   -6.0412   -2.8964 C.3       1 <0>        -0.0094
     10 C9         -0.4742   -7.3565   -2.2365 C.3       1 <0>        -0.1578
     11 H1         -0.3940   -8.1921   -2.9317 H         1 <0>         0.1249
     12 C10         0.5347   -7.5040   -1.0739 C.3       1 <0>        -0.1965
     13 C11         0.9999   -6.0902   -0.8027 C.2       1 <0>         0.3143
     14 O1          1.5788   -5.7297    0.2002 O.2       1 <0>        -0.3396
     15 C12        -1.8821   -7.2253   -1.7153 C.2       1 <0>         0.3171
     16 O2         -2.4996   -6.1956   -1.8886 O.2       1 <0>        -0.3074
     17 N2         -2.4553   -8.2521   -1.0568 N.am      1 <0>        -0.3454
     18 N3         -3.7978   -8.1706   -0.6645 N.2       1 <0>         0.0170
     19 C13        -4.3146   -9.1012    0.0781 C.2       1 <0>        -0.1022
     20 C14        -3.4436  -10.1081    0.7103 C.ar      1 <0>        -0.1227
     21 C15        -2.1081   -9.8070    0.9872 C.ar      1 <0>        -0.1342
     22 C16        -1.2987  -10.7534    1.5793 C.ar      1 <0>        -0.1344
     23 C17        -1.8042  -12.0015    1.9014 C.ar      1 <0>        -0.1018
     24 C18        -3.1241  -12.3115    1.6330 C.ar      1 <0>        -0.1526
     25 C19        -3.9524  -11.3710    1.0426 C.ar      1 <0>         0.0954
     26 O3         -5.2508  -11.6730    0.7832 O.3       1 <0>        -0.2880
     27 H2          0.9363    0.8258   -1.7268 H         1 <0>         0.0850
     28 H3          2.6548    0.4880   -1.4092 H         1 <0>         0.0799
     29 H4          2.0532    0.5429   -3.0835 H         1 <0>         0.0782
     30 H5          2.2085   -1.4252    0.0095 H         1 <0>         0.1342
     31 H6          1.7104   -3.8331    0.1153 H         1 <0>         0.1800
     32 H7          0.2633   -3.7008   -3.9065 H         1 <0>         0.1291
     33 H8          0.7571   -1.2914   -3.9991 H         1 <0>         0.1308
     34 H9         -0.8607   -5.4780   -3.2669 H         1 <0>         0.1341
     35 H10         0.6884   -6.2528   -3.7110 H         1 <0>         0.0927
     36 H11         0.0450   -7.9227   -0.1947 H         1 <0>         0.1162
     37 H12         1.3752   -8.1290   -1.3753 H         1 <0>         0.1229
     38 H13        -1.9383   -9.0475   -0.8544 H         1 <0>         0.2260
     39 H14        -5.3829   -9.1378    0.2326 H         1 <0>         0.1981
     40 H15        -1.7101   -8.8344    0.7381 H         1 <0>         0.1511
     41 H16        -0.2661  -10.5200    1.7931 H         1 <0>         0.1385
     42 H17        -1.1636  -12.7369    2.3653 H         1 <0>         0.1383
     43 H18        -3.5113  -13.2870    1.8875 H         1 <0>         0.1456
     44 H19        -5.3876  -12.1319   -0.0569 H         1 <0>         0.2338
@<TRIPOS>BOND
     1    1    2 1
     2    1   27 1
     3    1   28 1
     4    1   29 1
     5    2    7 ar
     6    2    3 ar
     7    3    4 ar
     8    3   30 1
     9    4    5 ar
    10    4   31 1
    11    5    6 ar
    12    5    8 1
    13    6    7 ar
    14    6   32 1
    15    7   33 1
    16    8   13 am
    17    8    9 1
    18    9   10 1
    19    9   34 1
    20    9   35 1
    21   10   11 1
    22   10   12 1
    23   10   15 1
    24   12   13 1
    25   12   36 1
    26   12   37 1
    27   13   14 2
    28   15   16 2
    29   15   17 am
    30   17   18 1
    31   17   38 1
    32   18   19 2
    33   19   20 1
    34   19   39 1
    35   20   25 ar
    36   20   21 ar
    37   21   22 ar
    38   21   40 1
    39   22   23 ar
    40   22   41 1
    41   23   24 ar
    42   23   42 1
    43   24   25 ar
    44   24   43 1
    45   25   26 1
    46   26   44 1
@<TRIPOS>MOLECULE
ZINC03912357
   42    44     0     0     0
SMALL
USER_CHARGES

@<TRIPOS>ATOM
      1 C1         -4.3546    8.0408    2.3238 C.3       1 <0>        -0.0758
      2 N1         -3.2429    8.9939    2.2795 N.pl3     1 <0>        -0.1124
      3 C2         -3.3563   10.3519    2.3342 C.2       1 <0>        -0.1228
      4 C3         -2.1188   10.8875    2.2663 C.2       1 <0>        -0.2119
      5 C4         -1.2002    9.8286    2.1717 C.2       1 <0>        -0.1638
      6 C5         -1.9150    8.6696    2.1757 C.2       1 <0>        -0.0220
      7 C6         -1.3566    7.3018    2.0897 C.2       1 <0>        -0.0403
      8 C7         -2.0791    6.0986    2.2089 C.2       1 <0>        -0.1704
      9 C8         -1.1408    5.0945    2.0644 C.2       1 <0>        -0.1623
     10 N2          0.0612    5.7130    1.8624 N.pl3     1 <0>        -0.1107
     11 H1          0.9322    5.2427    1.7203 H         1 <0>         0.2822
     12 N3         -0.0938    6.9876    1.8821 N.2       1 <0>        -0.0627
     13 C9         -1.3881    3.6448    2.1122 C.2       1 <0>         0.3855
     14 O1         -2.5148    3.2257    2.3003 O.2       1 <0>        -0.3034
     15 N4         -0.3666    2.7811    1.9476 N.am      1 <0>        -0.3466
     16 N5         -0.6021    1.4008    1.9931 N.2       1 <0>         0.0271
     17 C10         0.3581    0.5693    1.7248 C.2       1 <0>        -0.0989
     18 C11         1.6228    1.0640    1.1522 C.ar      1 <0>        -0.0860
     19 C12         1.6394    2.2409    0.3981 C.ar      1 <0>        -0.1838
     20 C13         2.8245    2.7006   -0.1355 C.ar      1 <0>        -0.0970
     21 C14         4.0018    2.0020    0.0715 C.ar      1 <0>        -0.2006
     22 C15         4.0004    0.8338    0.8170 C.ar      1 <0>         0.0770
     23 C16         2.8142    0.3608    1.3657 C.ar      1 <0>         0.0666
     24 O2          2.8102   -0.7817    2.1017 O.3       1 <0>        -0.2713
     25 O3          5.1608    0.1531    1.0165 O.3       1 <0>        -0.1973
     26 C17         6.3429    0.6999    0.4286 C.3       1 <0>        -0.0664
     27 H2         -4.4929    7.6911    3.3469 H         1 <0>         0.0894
     28 H3         -5.2663    8.5298    1.9806 H         1 <0>         0.0930
     29 H4         -4.1318    7.1923    1.6769 H         1 <0>         0.1024
     30 H5         -4.2800   10.9053    2.4176 H         1 <0>         0.1647
     31 H6         -1.8781   11.9402    2.2861 H         1 <0>         0.1481
     32 H7         -0.1259    9.9176    2.1054 H         1 <0>         0.1570
     33 H8         -3.1396    5.9850    2.3787 H         1 <0>         0.1797
     34 H9          0.5316    3.1152    1.7976 H         1 <0>         0.2210
     35 H10         0.2285   -0.4855    1.9171 H         1 <0>         0.1930
     36 H11         0.7241    2.7900    0.2337 H         1 <0>         0.1503
     37 H12         2.8347    3.6104   -0.7175 H         1 <0>         0.1380
     38 H13         4.9257    2.3691   -0.3505 H         1 <0>         0.1442
     39 H14         2.7383   -1.5890    1.5743 H         1 <0>         0.2316
     40 H15         6.2184    0.7558   -0.6528 H         1 <0>         0.0687
     41 H16         6.5177    1.6995    0.8264 H         1 <0>         0.0715
     42 H17         7.1944    0.0613    0.6637 H         1 <0>         0.1156
@<TRIPOS>BOND
     1    1    2 1
     2    1   27 1
     3    1   28 1
     4    1   29 1
     5    2    6 1
     6    2    3 1
     7    3    4 2
     8    3   30 1
     9    4    5 1
    10    4   31 1
    11    5    6 2
    12    5   32 1
    13    6    7 1
    14    7   12 2
    15    7    8 1
    16    8    9 2
    17    8   33 1
    18    9   10 1
    19    9   13 1
    20   10   11 1
    21   10   12 1
    22   13   14 2
    23   13   15 am
    24   15   16 1
    25   15   34 1
    26   16   17 2
    27   17   18 1
    28   17   35 1
    29   18   23 ar
    30   18   19 ar
    31   19   20 ar
    32   19   36 1
    33   20   21 ar
    34   20   37 1
    35   21   22 ar
    36   21   38 1
    37   22   23 ar
    38   22   25 1
    39   23   24 1
    40   24   39 1
    41   25   26 1
    42   26   40 1
    43   26   41 1
    44   26   42 1
@<TRIPOS>MOLECULE
ZINC03912608
   40    42     0     0     0
SMALL
USER_CHARGES

@<TRIPOS>ATOM
      1 C1         -3.5020   -2.6551    0.3699 C.3       1 <0>        -0.1653
      2 C2         -2.0621   -3.0071    0.0985 C.2       1 <0>         0.0632
      3 C3         -1.0908   -2.1368   -0.2554 C.2       1 <0>        -0.1653
      4 C4          0.1422   -2.9069   -0.4221 C.2       1 <0>         0.3565
      5 O1          1.2326   -2.4689   -0.7424 O.2       1 <0>        -0.3361
      6 N1         -0.1578   -4.1938   -0.1500 N.am      1 <0>        -0.1753
      7 N2         -1.5187   -4.2641    0.1689 N.pl3     1 <0>        -0.1901
      8 C5         -2.2466   -5.4858    0.5210 C.3       1 <0>        -0.0359
      9 C6          0.7340   -5.2703   -0.1863 C.ar      1 <0>         0.0754
     10 C7          0.7608   -6.1872    0.8566 C.ar      1 <0>        -0.1491
     11 C8          1.6388   -7.2525    0.8150 C.ar      1 <0>        -0.1172
     12 C9          2.4989   -7.4001   -0.2577 C.ar      1 <0>        -0.1315
     13 C10         2.4787   -6.4857   -1.2949 C.ar      1 <0>        -0.1123
     14 C11         1.5989   -5.4217   -1.2625 C.ar      1 <0>        -0.1128
     15 N3         -1.2392   -0.7463   -0.4362 N.pl3     1 <0>        -0.2343
     16 C12        -0.4766    0.1351    0.3131 C.ar      1 <0>         0.2881
     17 C13        -0.5506    1.5061    0.0820 C.ar      1 <0>        -0.3622
     18 C14         0.2349    2.3488    0.8616 C.ar      1 <0>         0.2805
     19 N4          1.0236    1.8177    1.7947 N.ar      1 <0>        -0.3145
     20 C15         1.0660    0.5146    1.9827 C.ar      1 <0>         0.1235
     21 N5          0.3379   -0.3168    1.2655 N.ar      1 <0>        -0.2793
     22 N6          0.1976    3.7214    0.6704 N.pl3     1 <0>        -0.3739
     23 N7         -1.4375    2.0522   -0.9699 N.pl3     1 <0>         0.5497
     24 O2         -2.5870    2.3527   -0.7019 O.2       1 <0>        -0.3614
     25 O3         -1.0176    2.2011   -2.1035 O.3       1 <0>        -0.3428
     26 H1         -3.6451   -1.5827    0.2374 H         1 <0>         0.1109
     27 H2         -4.1453   -3.1960   -0.3241 H         1 <0>         0.0926
     28 H3         -3.7572   -2.9320    1.3928 H         1 <0>         0.0984
     29 H4         -3.3070   -5.2583    0.6298 H         1 <0>         0.1019
     30 H5         -2.1131   -6.2279   -0.2661 H         1 <0>         0.0935
     31 H6         -1.8613   -5.8801    1.4613 H         1 <0>         0.0867
     32 H7          0.0924   -6.0700    1.6968 H         1 <0>         0.1348
     33 H8          1.6571   -7.9683    1.6235 H         1 <0>         0.1336
     34 H9          3.1876   -8.2315   -0.2857 H         1 <0>         0.1332
     35 H10         3.1514   -6.6041   -2.1315 H         1 <0>         0.1388
     36 H11         1.5831   -4.7083   -2.0732 H         1 <0>         0.1563
     37 H12        -1.8752   -0.4068   -1.0852 H         1 <0>         0.2529
     38 H13         1.7164    0.1161    2.7473 H         1 <0>         0.2050
     39 H14        -0.3793    4.1007   -0.0111 H         1 <0>         0.2402
     40 H15         0.7483    4.3026    1.2180 H         1 <0>         0.2439
@<TRIPOS>BOND
     1    1    2 1
     2    1   26 1
     3    1   27 1
     4    1   28 1
     5    2    7 1
     6    2    3 2
     7    3    4 1
     8    3   15 1
     9    4    5 2
    10    4    6 am
    11    6    7 1
    12    6    9 1
    13    7    8 1
    14    8   29 1
    15    8   30 1
    16    8   31 1
    17    9   14 ar
    18    9   10 ar
    19   10   11 ar
    20   10   32 1
    21   11   12 ar
    22   11   33 1
    23   12   13 ar
    24   12   34 1
    25   13   14 ar
    26   13   35 1
    27   14   36 1
    28   15   16 1
    29   15   37 1
    30   16   21 ar
    31   16   17 ar
    32   17   18 ar
    33   17   23 1
    34   18   19 ar
    35   18   22 1
    36   19   20 ar
    37   20   21 ar
    38   20   38 1
    39   22   39 1
    40   22   40 1
    41   23   24 2
    42   23   25 1
@<TRIPOS>MOLECULE
ZINC03912626
   47    48     0     0     0
SMALL
USER_CHARGES

@<TRIPOS>ATOM
      1 C1         -0.5284   -4.7120   -2.3335 C.3       1 <0>        -0.2029
      2 C2          0.6875   -3.8015   -2.1508 C.3       1 <0>        -0.0553
      3 C3          0.4861   -2.9244   -0.9121 C.3       1 <0>        -0.1574
      4 C4          1.7101   -2.0580   -0.7171 C.2       1 <0>        -0.1090
      5 N1          1.6084   -0.7850   -0.6297 N.2       1 <0>         0.0181
      6 N2          0.3432   -0.1845   -0.5887 N.am      1 <0>        -0.3360
      7 C5          0.2345    1.1460   -0.4031 C.2       1 <0>         0.3146
      8 O1          1.2320    1.8235   -0.2716 O.2       1 <0>        -0.3281
      9 C6         -1.1262    1.7927   -0.3652 C.3       1 <0>        -0.1702
     10 C7         -0.9691    3.2985   -0.1439 C.3       1 <0>        -0.1726
     11 C8         -2.3297    3.9452   -0.1060 C.2       1 <0>         0.3002
     12 O2         -3.3269    3.2684   -0.2425 O.2       1 <0>        -0.3628
     13 N3         -2.4385    5.2757    0.0796 N.am      1 <0>        -0.3248
     14 C9         -3.7013    5.8612    0.2228 C.ar      1 <0>         0.0615
     15 C10        -3.9298    7.1470   -0.2497 C.ar      1 <0>        -0.1606
     16 C11        -5.1786    7.7202   -0.1111 C.ar      1 <0>        -0.1106
     17 C12        -6.1982    7.0191    0.5063 C.ar      1 <0>        -0.1442
     18 C13        -5.9724    5.7407    0.9826 C.ar      1 <0>        -0.1111
     19 C14        -4.7271    5.1600    0.8428 C.ar      1 <0>        -0.1272
     20 C15         3.0611   -2.7393   -0.6345 C.3       1 <0>        -0.1361
     21 C16         3.1332   -3.7505   -1.7548 C.2       1 <0>         0.2295
     22 O3          4.1128   -3.8286   -2.4567 O.2       1 <0>        -0.2669
     23 C17         1.9442   -4.6585   -1.9753 C.3       1 <0>        -0.1951
     24 C18         0.8471   -2.9112   -3.3848 C.3       1 <0>        -0.2094
     25 H1         -1.4229   -4.1024   -2.4612 H         1 <0>         0.0791
     26 H2         -0.3855   -5.3366   -3.2152 H         1 <0>         0.0844
     27 H3         -0.6432   -5.3457   -1.4541 H         1 <0>         0.0761
     28 H4          0.3442   -3.5575   -0.0362 H         1 <0>         0.1042
     29 H5         -0.3902   -2.2915   -1.0520 H         1 <0>         0.0879
     30 H6         -0.4544   -0.7264   -0.6938 H         1 <0>         0.2148
     31 H7         -1.6390    1.6159   -1.3106 H         1 <0>         0.1191
     32 H8         -1.7094    1.3646    0.4501 H         1 <0>         0.1167
     33 H9         -0.4563    3.4753    0.8015 H         1 <0>         0.1213
     34 H10        -0.3859    3.7266   -0.9592 H         1 <0>         0.1209
     35 H11        -1.6414    5.8274    0.1138 H         1 <0>         0.2351
     36 H12        -3.1326    7.6967   -0.7280 H         1 <0>         0.1292
     37 H13        -5.3579    8.7188   -0.4814 H         1 <0>         0.1309
     38 H14        -7.1727    7.4712    0.6172 H         1 <0>         0.1293
     39 H15        -6.7706    5.1959    1.4647 H         1 <0>         0.1329
     40 H16        -4.5512    4.1617    1.2156 H         1 <0>         0.1572
     41 H17         3.7852   -2.0562   -0.7293 H         1 <0>         0.1270
     42 H18         3.1622   -3.2465    0.3250 H         1 <0>         0.1234
     43 H19         1.8290   -5.2612   -1.1857 H         1 <0>         0.0997
     44 H20         2.1037   -5.2595   -2.8705 H         1 <0>         0.1162
     45 H21         1.7127   -2.2616   -3.2547 H         1 <0>         0.0883
     46 H22         0.9906   -3.5352   -4.2670 H         1 <0>         0.0863
     47 H23        -0.0481   -2.3026   -3.5120 H         1 <0>         0.0768
@<TRIPOS>BOND
     1    1    2 1
     2    1   25 1
     3    1   26 1
     4    1   27 1
     5    2   23 1
     6    2    3 1
     7    2   24 1
     8    3    4 1
     9    3   28 1
    10    3   29 1
    11    4    5 2
    12    4   20 1
    13    5    6 1
    14    6    7 am
    15    6   30 1
    16    7    8 2
    17    7    9 1
    18    9   10 1
    19    9   31 1
    20    9   32 1
    21   10   11 1
    22   10   33 1
    23   10   34 1
    24   11   12 2
    25   11   13 am
    26   13   14 1
    27   13   35 1
    28   14   19 ar
    29   14   15 ar
    30   15   16 ar
    31   15   36 1
    32   16   17 ar
    33   16   37 1
    34   17   18 ar
    35   17   38 1
    36   18   19 ar
    37   18   39 1
    38   19   40 1
    39   20   21 1
    40   20   41 1
    41   20   42 1
    42   21   22 2
    43   21   23 1
    44   23   43 1
    45   23   44 1
    46   24   45 1
    47   24   46 1
    48   24   47 1
@<TRIPOS>MOLECULE
ZINC03912682
   43    45     0     0     0
SMALL
USER_CHARGES

@<TRIPOS>ATOM
      1 C1          2.5646   -2.9209   -0.2321 C.3       1 <0>        -0.2543
      2 C2          1.2658   -2.1676   -0.1029 C.2       1 <0>         0.2690
      3 O1          0.2183   -2.7740   -0.0217 O.2       1 <0>        -0.2970
      4 C3          1.2682   -0.7003   -0.0753 C.ar      1 <0>        -0.1892
      5 C4          0.0572    0.0043   -0.0726 C.ar      1 <0>        -0.0422
      6 C5          0.0640    1.3695   -0.0464 C.ar      1 <0>        -0.1695
      7 C6          1.2728    2.0617   -0.0224 C.ar      1 <0>         0.0534
      8 C7          2.4792    1.3651   -0.0251 C.ar      1 <0>        -0.2000
      9 C8          2.4816   -0.0001   -0.0512 C.ar      1 <0>        -0.0623
     10 N1          1.2750    3.4504    0.0042 N.pl3     1 <0>        -0.2001
     11 C9          0.5229    4.0001   -1.1323 C.3       1 <0>        -0.0676
     12 C10         0.4818    5.5262   -1.0232 C.3       1 <0>        -0.0711
     13 N2          1.8545    6.0502   -1.0009 N.pl3     1 <0>        -0.2208
     14 C11         2.6067    5.5005    0.1356 C.3       1 <0>        -0.0702
     15 C12         2.6478    3.9744    0.0264 C.3       1 <0>        -0.0791
     16 C13         1.8568    7.4362   -0.9744 C.ar      1 <0>         0.2023
     17 C14         2.3097    8.1627   -2.0716 C.ar      1 <0>        -0.2680
     18 C15         2.2874    9.5518   -1.9969 C.ar      1 <0>         0.2524
     19 N3          1.8460   10.1321   -0.8822 N.ar      1 <0>        -0.2769
     20 C16         1.4301    9.4091    0.1374 C.ar      1 <0>         0.0983
     21 N4          1.4309    8.0920    0.1036 N.ar      1 <0>        -0.2835
     22 N5          2.7232   10.3207   -3.0650 N.pl3     1 <0>        -0.3682
     23 N6          2.7973    7.4754   -3.2886 N.pl3     1 <0>         0.5655
     24 O2          2.0409    7.2827   -4.2236 O.2       1 <0>        -0.3486
     25 O3          3.9549    7.1024   -3.3549 O.3       1 <0>        -0.3373
     26 H1          3.3130   -2.2730   -0.3742 H         1 <0>         0.0800
     27 H2          2.7459   -3.4914    0.6788 H         1 <0>         0.1066
     28 H3          2.5069   -3.6015   -1.0816 H         1 <0>         0.1074
     29 H4         -0.8803   -0.5316   -0.0908 H         1 <0>         0.1541
     30 H5         -0.8690    1.9135   -0.0489 H         1 <0>         0.1406
     31 H6          3.4140    1.9057   -0.0068 H         1 <0>         0.1398
     32 H7          3.4173   -0.5394   -0.0528 H         1 <0>         0.1355
     33 H8          1.0118    3.7152   -2.0639 H         1 <0>         0.0872
     34 H9         -0.4938    3.6071   -1.1198 H         1 <0>         0.1094
     35 H10        -0.0313    5.8113   -0.1047 H         1 <0>         0.0944
     36 H11        -0.0508    5.9379   -1.8805 H         1 <0>         0.1089
     37 H12         2.1178    5.7854    1.0672 H         1 <0>         0.0983
     38 H13         3.6233    5.8935    0.1231 H         1 <0>         0.1071
     39 H14         3.1804    3.5627    0.8837 H         1 <0>         0.1102
     40 H15         3.1608    3.6892   -0.8920 H         1 <0>         0.0850
     41 H16         1.0779    9.9106    1.0267 H         1 <0>         0.2077
     42 H17         2.7080   11.2886   -3.0039 H         1 <0>         0.2472
     43 H18         3.0432    9.8907   -3.8735 H         1 <0>         0.2454
@<TRIPOS>BOND
     1    1    2 1
     2    1   26 1
     3    1   27 1
     4    1   28 1
     5    2    3 2
     6    2    4 1
     7    4    9 ar
     8    4    5 ar
     9    5    6 ar
    10    5   29 1
    11    6    7 ar
    12    6   30 1
    13    7    8 ar
    14    7   10 1
    15    8    9 ar
    16    8   31 1
    17    9   32 1
    18   10   15 1
    19   10   11 1
    20   11   12 1
    21   11   33 1
    22   11   34 1
    23   12   13 1
    24   12   35 1
    25   12   36 1
    26   13   14 1
    27   13   16 1
    28   14   15 1
    29   14   37 1
    30   14   38 1
    31   15   39 1
    32   15   40 1
    33   16   21 ar
    34   16   17 ar
    35   17   18 ar
    36   17   23 1
    37   18   19 ar
    38   18   22 1
    39   19   20 ar
    40   20   21 ar
    41   20   41 1
    42   22   42 1
    43   22   43 1
    44   23   24 2
    45   23   25 1
@<TRIPOS>MOLECULE
ZINC03912694
   42    44     0     0     0
SMALL
USER_CHARGES

@<TRIPOS>ATOM
      1 C1          1.7431   -1.5405   10.1144 C.ar      1 <0>        -0.1286
      2 C2          0.3778   -1.5146    9.8992 C.ar      1 <0>        -0.1279
      3 C3         -0.1214   -1.1079    8.6759 C.ar      1 <0>        -0.1211
      4 C4          0.7446   -0.7276    7.6678 C.ar      1 <0>        -0.0800
      5 C5          2.1100   -0.7590    7.8812 C.ar      1 <0>        -0.1207
      6 C6          2.6091   -1.1602    9.1063 C.ar      1 <0>        -0.1278
      7 C7          0.2003   -0.2847    6.3342 C.3       1 <0>        -0.1389
      8 C8         -0.0324    1.2274    6.3550 C.3       1 <0>        -0.0203
      9 N1         -0.5615    1.6580    5.0585 N.am      1 <0>        -0.3083
     10 C9         -1.8917    1.6780    4.8641 C.2       1 <0>         0.3137
     11 O1         -2.6341    1.3321    5.7579 O.2       1 <0>        -0.3183
     12 C10        -2.4687    2.1256    3.5464 C.3       1 <0>        -0.1004
     13 N2         -1.5083    1.8321    2.4719 N.pl3     1 <0>        -0.2051
     14 C11        -0.2183    2.4829    2.7467 C.3       1 <0>        -0.1021
     15 C12         0.2932    2.0253    4.0878 C.2       1 <0>         0.3166
     16 O2          1.4873    1.9881    4.2938 O.2       1 <0>        -0.3141
     17 C13        -2.0083    2.2211    1.2388 C.ar      1 <0>         0.1941
     18 C14        -1.7484    1.4635    0.1007 C.ar      1 <0>        -0.2712
     19 C15        -2.2677    1.8999   -1.1141 C.ar      1 <0>         0.2577
     20 N3         -2.9988    3.0129   -1.1420 N.ar      1 <0>        -0.2741
     21 C16        -3.2225    3.7026   -0.0422 C.ar      1 <0>         0.1057
     22 N4         -2.7438    3.3255    1.1259 N.ar      1 <0>        -0.2928
     23 N5         -2.0323    1.1836   -2.2775 N.pl3     1 <0>        -0.3635
     24 N6         -0.9356    0.2289    0.1795 N.pl3     1 <0>         0.5597
     25 O3         -1.4656   -0.8325    0.4556 O.2       1 <0>        -0.3239
     26 O4          0.2622    0.2735   -0.0366 O.3       1 <0>        -0.3489
     27 H1          2.1331   -1.8576   11.0703 H         1 <0>         0.1279
     28 H2         -0.2987   -1.8117   10.6868 H         1 <0>         0.1293
     29 H3         -1.1881   -1.0876    8.5078 H         1 <0>         0.1350
     30 H4          2.7867   -0.4661    7.0921 H         1 <0>         0.1355
     31 H5          3.6757   -1.1802    9.2745 H         1 <0>         0.1294
     32 H6         -0.7430   -0.7948    6.1392 H         1 <0>         0.1024
     33 H7          0.9157   -0.5314    5.5497 H         1 <0>         0.1033
     34 H8          0.9110    1.7375    6.5500 H         1 <0>         0.1190
     35 H9         -0.7478    1.4741    7.1395 H         1 <0>         0.1191
     36 H10        -2.6620    3.1978    3.5790 H         1 <0>         0.1208
     37 H11        -3.4005    1.5926    3.3573 H         1 <0>         0.1492
     38 H12         0.4985    2.2117    1.9717 H         1 <0>         0.1545
     39 H13        -0.3515    3.5647    2.7580 H         1 <0>         0.1080
     40 H14        -3.8159    4.6032   -0.0997 H         1 <0>         0.2105
     41 H15        -1.5023    0.3718   -2.2483 H         1 <0>         0.2473
     42 H16        -2.3978    1.4943   -3.1206 H         1 <0>         0.2493
@<TRIPOS>BOND
     1    1    6 ar
     2    1    2 ar
     3    1   27 1
     4    2    3 ar
     5    2   28 1
     6    3    4 ar
     7    3   29 1
     8    4    5 ar
     9    4    7 1
    10    5    6 ar
    11    5   30 1
    12    6   31 1
    13    7    8 1
    14    7   32 1
    15    7   33 1
    16    8    9 1
    17    8   34 1
    18    8   35 1
    19    9   15 am
    20    9   10 am
    21   10   11 2
    22   10   12 1
    23   12   13 1
    24   12   36 1
    25   12   37 1
    26   13   14 1
    27   13   17 1
    28   14   15 1
    29   14   38 1
    30   14   39 1
    31   15   16 2
    32   17   22 ar
    33   17   18 ar
    34   18   19 ar
    35   18   24 1
    36   19   20 ar
    37   19   23 1
    38   20   21 ar
    39   21   22 ar
    40   21   40 1
    41   23   41 1
    42   23   42 1
    43   24   25 2
    44   24   26 1
@<TRIPOS>MOLECULE
ZINC03913141
   41    42     0     0     0
SMALL
USER_CHARGES

@<TRIPOS>ATOM
      1 C1          2.0604    2.8032    4.6188 C.3       1 <0>        -0.2409
      2 C2          0.7628    3.1738    3.9483 C.2       1 <0>         0.3017
      3 O1          0.3768    4.3234    3.9678 O.2       1 <0>        -0.3516
      4 N1          0.0311    2.2278    3.3269 N.am      1 <0>        -0.3308
      5 C3         -1.2093    2.5536    2.7791 C.ar      1 <0>         0.0853
      6 C4         -1.4032    3.8003    2.1927 C.ar      1 <0>        -0.1369
      7 C5         -2.6249    4.1234    1.6466 C.ar      1 <0>        -0.0938
      8 C6         -3.6742    3.2011    1.6910 C.ar      1 <0>        -0.1470
      9 C7         -3.4775    1.9516    2.2856 C.ar      1 <0>        -0.0463
     10 C8         -2.2518    1.6333    2.8253 C.ar      1 <0>        -0.1730
     11 C9         -4.9865    3.5456    1.1109 C.2       1 <0>         0.3605
     12 O2         -5.9261    2.7836    1.2370 O.2       1 <0>        -0.3241
     13 N2         -5.1440    4.7047    0.4415 N.am      1 <0>        -0.3470
     14 N3         -6.3585    4.9847   -0.1983 N.2       1 <0>         0.0236
     15 C10        -6.4738    6.0465   -0.9362 C.2       1 <0>        -0.1112
     16 C11        -5.2822    6.8499   -1.2626 C.ar      1 <0>        -0.0824
     17 C12        -4.0175    6.2549   -1.2813 C.ar      1 <0>        -0.1805
     18 C13        -2.9052    7.0099   -1.5870 C.ar      1 <0>        -0.0942
     19 C14        -3.0334    8.3576   -1.8770 C.ar      1 <0>        -0.2028
     20 C15        -4.2810    8.9610   -1.8622 C.ar      1 <0>         0.0748
     21 C16        -5.4120    8.2115   -1.5610 C.ar      1 <0>         0.0640
     22 O3         -6.6376    8.7987   -1.5511 O.3       1 <0>        -0.2738
     23 O4         -4.3992   10.2852   -2.1485 O.3       1 <0>        -0.1989
     24 C17        -3.1961   10.9926   -2.4555 C.3       1 <0>        -0.0657
     25 H1          2.7442    2.3841    3.8806 H         1 <0>         0.0960
     26 H2          2.5066    3.6927    5.0636 H         1 <0>         0.1209
     27 H3          1.8692    2.0646    5.3973 H         1 <0>         0.0990
     28 H4          0.3690    1.3212    3.2572 H         1 <0>         0.2350
     29 H5         -0.5930    4.5139    2.1621 H         1 <0>         0.1668
     30 H6         -2.7736    5.0898    1.1879 H         1 <0>         0.1290
     31 H7         -4.2861    1.2365    2.3212 H         1 <0>         0.1609
     32 H8         -2.0990    0.6679    3.2849 H         1 <0>         0.1367
     33 H9         -4.4165    5.3451    0.4026 H         1 <0>         0.2319
     34 H10        -7.4429    6.3410   -1.3109 H         1 <0>         0.1976
     35 H11        -3.9117    5.2038   -1.0566 H         1 <0>         0.1556
     36 H12        -1.9292    6.5477   -1.6008 H         1 <0>         0.1368
     37 H13        -2.1569    8.9416   -2.1154 H         1 <0>         0.1416
     38 H14        -6.8593    9.2321   -0.7156 H         1 <0>         0.2314
     39 H15        -2.5148   10.9362   -1.6065 H         1 <0>         0.0674
     40 H16        -2.7245   10.5448   -3.3302 H         1 <0>         0.0711
     41 H17        -3.4313   12.0363   -2.6638 H         1 <0>         0.1133
@<TRIPOS>BOND
     1    1    2 1
     2    1   25 1
     3    1   26 1
     4    1   27 1
     5    2    3 2
     6    2    4 am
     7    4    5 1
     8    4   28 1
     9    5   10 ar
    10    5    6 ar
    11    6    7 ar
    12    6   29 1
    13    7    8 ar
    14    7   30 1
    15    8    9 ar
    16    8   11 1
    17    9   10 ar
    18    9   31 1
    19   10   32 1
    20   11   12 2
    21   11   13 am
    22   13   14 1
    23   13   33 1
    24   14   15 2
    25   15   16 1
    26   15   34 1
    27   16   21 ar
    28   16   17 ar
    29   17   18 ar
    30   17   35 1
    31   18   19 ar
    32   18   36 1
    33   19   20 ar
    34   19   37 1
    35   20   21 ar
    36   20   23 1
    37   21   22 1
    38   22   38 1
    39   23   24 1
    40   24   39 1
    41   24   40 1
    42   24   41 1
@<TRIPOS>MOLECULE
ZINC03918624
   41    42     0     0     0
SMALL
USER_CHARGES

@<TRIPOS>ATOM
      1 C1         -2.6786    3.0653   -5.1866 C.3       1 <0>        -0.2007
      2 C2         -1.9561    2.6319   -3.9371 C.ar      1 <0>         0.0455
      3 C3         -2.4873    1.6413   -3.1428 C.ar      1 <0>        -0.1832
      4 C4         -1.8202    1.2404   -1.9882 C.ar      1 <0>        -0.0976
      5 C5         -0.6140    1.8401   -1.6343 C.ar      1 <0>        -0.7592
      6 C6         -0.0812    2.8342   -2.4224 C.ar      1 <0>         0.0432
      7 C7         -0.7463    3.2350   -3.5842 C.ar      1 <0>        -0.1697
      8 C8         -0.1738    4.2993   -4.4351 C.2       1 <0>         0.3494
      9 O1         -0.7113    4.5920   -5.4888 O.2       1 <0>        -0.3805
     10 N1          0.9368    4.9426   -4.0477 N.2       1 <0>        -0.4293
     11 C9          0.9233    6.2585   -3.9035 C.2       1 <0>         0.3436
     12 N2         -0.2452    6.9480   -4.0434 N.pl3     1 <0>        -0.4298
     13 N3          2.0780    6.9248   -3.6150 N.pl3     1 <0>        -0.3905
     14 S1          0.2267    1.3304   -0.1721 S.o2      1 <0>         2.6551
     15 O2          0.3048   -0.0849   -0.2734 O.2       1 <0>        -0.8833
     16 O3          1.4074    2.1204   -0.1385 O.2       1 <0>        -0.9037
     17 C10        -0.8778    1.7994    1.1883 C.3       1 <0>        -0.8135
     18 S2         -2.5035   -0.0272   -0.9729 S.3       1 <0>         0.2780
     19 C11        -4.0659   -0.3696   -1.7121 C.ar      1 <0>        -0.2565
     20 C12        -5.1770    0.3954   -1.3783 C.ar      1 <0>        -0.0800
     21 C13        -6.3985    0.1279   -1.9639 C.ar      1 <0>        -0.1429
     22 C14        -6.5195   -0.9073   -2.8731 C.ar      1 <0>        -0.0961
     23 C15        -5.4171   -1.6743   -3.2034 C.ar      1 <0>        -0.1418
     24 C16        -4.1912   -1.4089   -2.6261 C.ar      1 <0>        -0.0676
     25 H1         -3.2643    3.9601   -4.9758 H         1 <0>         0.0902
     26 H2         -1.9520    3.2827   -5.9695 H         1 <0>         0.1437
     27 H3         -3.3420    2.2666   -5.5182 H         1 <0>         0.0742
     28 H4         -3.4225    1.1748   -3.4152 H         1 <0>         0.1478
     29 H5          0.8519    3.3019   -2.1451 H         1 <0>         0.1794
     30 H6         -1.0783    6.4688   -4.1747 H         1 <0>         0.2544
     31 H7         -0.2431    7.9175   -4.0116 H         1 <0>         0.2160
     32 H8          2.9090    6.4345   -3.5155 H         1 <0>         0.2575
     33 H9          2.0681    7.8890   -3.5094 H         1 <0>         0.2253
     34 H10        -0.4253    1.5151    2.1383 H         1 <0>         0.1396
     35 H11        -1.0385    2.8774    1.1706 H         1 <0>         0.1333
     36 H12        -1.8333    1.2877    1.0734 H         1 <0>         0.1488
     37 H13        -5.0842    1.2010   -0.6651 H         1 <0>         0.1406
     38 H14        -7.2615    0.7246   -1.7080 H         1 <0>         0.1358
     39 H15        -7.4772   -1.1173   -3.3260 H         1 <0>         0.1343
     40 H16        -5.5151   -2.4817   -3.9141 H         1 <0>         0.1384
     41 H17        -3.3308   -2.0085   -2.8842 H         1 <0>         0.1520
@<TRIPOS>BOND
     1    1    2 1
     2    1   25 1
     3    1   26 1
     4    1   27 1
     5    2    7 ar
     6    2    3 ar
     7    3    4 ar
     8    3   28 1
     9    4    5 ar
    10    4   18 1
    11    5    6 ar
    12    5   14 1
    13    6    7 ar
    14    6   29 1
    15    7    8 1
    16    8    9 2
    17    8   10 1
    18   10   11 2
    19   11   12 1
    20   11   13 1
    21   12   30 1
    22   12   31 1
    23   13   32 1
    24   13   33 1
    25   14   15 2
    26   14   16 2
    27   14   17 1
    28   17   34 1
    29   17   35 1
    30   17   36 1
    31   18   19 1
    32   19   24 ar
    33   19   20 ar
    34   20   21 ar
    35   20   37 1
    36   21   22 ar
    37   21   38 1
    38   22   23 ar
    39   22   39 1
    40   23   24 ar
    41   23   40 1
    42   24   41 1
@<TRIPOS>MOLECULE
ZINC03929451
   46    47     0     0     0
SMALL
USER_CHARGES

@<TRIPOS>ATOM
      1 C1          2.9421    3.5006   -5.3841 C.3       1 <0>        -0.0676
      2 N1          1.5450    3.6212   -5.8082 N.am      1 <0>        -0.3743
      3 C2          0.5747    4.3031   -4.9481 C.3       1 <0>         0.0364
      4 C3         -0.0583    3.3039   -4.0144 C.ar      1 <0>        -0.1306
      5 C4         -1.2094    2.6377   -4.3936 C.ar      1 <0>        -0.0510
      6 C5         -1.7916    1.7215   -3.5398 C.ar      1 <0>        -0.1619
      7 C6         -1.2170    1.4650   -2.3028 C.ar      1 <0>         0.1446
      8 C7         -0.0652    2.1386   -1.9226 C.ar      1 <0>        -0.7629
      9 C8          0.5129    3.0545   -2.7804 C.ar      1 <0>        -0.0145
     10 S1          0.6638    1.8208   -0.3503 S.o2      1 <0>         2.6595
     11 O1          0.7812    0.4062   -0.2843 O.2       1 <0>        -0.8896
     12 O2          1.8199    2.6462   -0.3132 O.2       1 <0>        -0.9088
     13 C9         -0.5588    2.4032    0.8566 C.3       1 <0>        -0.7995
     14 O3         -1.7844    0.5596   -1.4633 O.3       1 <0>        -0.1863
     15 C10        -1.3625   -0.7300   -1.5365 C.ar      1 <0>         0.1024
     16 C11        -0.3672   -1.0857   -2.4355 C.ar      1 <0>        -0.1754
     17 C12         0.0642   -2.3962   -2.5035 C.ar      1 <0>        -0.0909
     18 C13        -0.5031   -3.3555   -1.6849 C.ar      1 <0>        -0.1530
     19 C14        -1.4993   -3.0048   -0.7925 C.ar      1 <0>        -0.0949
     20 C15        -1.9301   -1.6946   -0.7162 C.ar      1 <0>        -0.1425
     21 C16         1.1524    3.1048   -6.9895 C.2       1 <0>         0.3918
     22 O4         -0.0092    3.2050   -7.3421 O.2       1 <0>        -0.3970
     23 N2          2.0403    2.4808   -7.7765 N.2       1 <0>        -0.4052
     24 C17         2.4933    1.2832   -7.4428 C.2       1 <0>         0.3270
     25 N3          1.9615    0.6269   -6.3716 N.pl3     1 <0>        -0.4372
     26 N4          3.4921    0.7048   -8.1699 N.pl3     1 <0>        -0.3940
     27 H1          3.0714    2.5789   -4.8169 H         1 <0>         0.0622
     28 H2          3.5879    3.4806   -6.2620 H         1 <0>         0.0989
     29 H3          3.2066    4.3527   -4.7579 H         1 <0>         0.0812
     30 H4         -0.1970    4.7636   -5.5650 H         1 <0>         0.1251
     31 H5          1.0824    5.0728   -4.3667 H         1 <0>         0.0932
     32 H6         -1.6536    2.8344   -5.3582 H         1 <0>         0.1673
     33 H7         -2.6907    1.2018   -3.8363 H         1 <0>         0.1536
     34 H8          1.4120    3.5758   -2.4867 H         1 <0>         0.1618
     35 H9         -0.1795    2.2404    1.8655 H         1 <0>         0.1401
     36 H10        -0.7414    3.4670    0.7044 H         1 <0>         0.1355
     37 H11        -1.4901    1.8523    0.7252 H         1 <0>         0.1492
     38 H12         0.0728   -0.3378   -3.0784 H         1 <0>         0.1322
     39 H13         0.8422   -2.6727   -3.1997 H         1 <0>         0.1248
     40 H14        -0.1677   -4.3804   -1.7430 H         1 <0>         0.1289
     41 H15        -1.9408   -3.7559   -0.1543 H         1 <0>         0.1332
     42 H16        -2.7083   -1.4212   -0.0190 H         1 <0>         0.1380
     43 H17         1.1983    1.0006   -5.9039 H         1 <0>         0.2530
     44 H18         2.3465   -0.2135   -6.0777 H         1 <0>         0.2159
     45 H19         3.8702    1.1715   -8.9316 H         1 <0>         0.2558
     46 H20         3.8242   -0.1731   -7.9253 H         1 <0>         0.2257
@<TRIPOS>BOND
     1    1    2 1
     2    1   27 1
     3    1   28 1
     4    1   29 1
     5    2    3 1
     6    2   21 am
     7    3    4 1
     8    3   30 1
     9    3   31 1
    10    4    9 ar
    11    4    5 ar
    12    5    6 ar
    13    5   32 1
    14    6    7 ar
    15    6   33 1
    16    7    8 ar
    17    7   14 1
    18    8    9 ar
    19    8   10 1
    20    9   34 1
    21   10   11 2
    22   10   12 2
    23   10   13 1
    24   13   35 1
    25   13   36 1
    26   13   37 1
    27   14   15 1
    28   15   20 ar
    29   15   16 ar
    30   16   17 ar
    31   16   38 1
    32   17   18 ar
    33   17   39 1
    34   18   19 ar
    35   18   40 1
    36   19   20 ar
    37   19   41 1
    38   20   42 1
    39   21   22 2
    40   21   23 1
    41   23   24 2
    42   24   25 1
    43   24   26 1
    44   25   43 1
    45   25   44 1
    46   26   45 1
    47   26   46 1
@<TRIPOS>MOLECULE
ZINC03930676
   46    49     0     0     0
SMALL
USER_CHARGES

@<TRIPOS>ATOM
      1 C1         -2.1818   -0.0307   -0.5651 C.3       1 <0>        -0.2398
      2 C2         -2.1981    1.4762   -0.5643 C.2       1 <0>         0.3046
      3 O1         -3.1169    2.0730   -1.0847 O.2       1 <0>        -0.3529
      4 N1         -1.1946    2.1607    0.0195 N.am      1 <0>        -0.3328
      5 C3         -1.1591    3.5571   -0.0634 C.ar      1 <0>         0.0853
      6 C4          0.0588    4.2180   -0.1556 C.ar      1 <0>        -0.1539
      7 C5          0.0900    5.5959   -0.2440 C.ar      1 <0>        -0.0988
      8 C6         -1.0891    6.3182   -0.2279 C.ar      1 <0>        -0.1281
      9 C7         -2.3031    5.6634   -0.1300 C.ar      1 <0>        -0.1079
     10 C8         -2.3415    4.2853   -0.0480 C.ar      1 <0>        -0.1210
     11 C9         -1.0509    7.8220   -0.3177 C.3       1 <0>        -0.1363
     12 C10        -0.9675    8.4151    1.0902 C.3       1 <0>        -0.0337
     13 N2         -0.9304    9.8770    1.0029 N.pl3     1 <0>        -0.1152
     14 C11         0.1852   10.6569    1.0043 C.2       1 <0>        -0.0140
     15 N3         -0.1530   11.9110    0.9106 N.2       1 <0>        -0.1270
     16 C12        -1.5025   12.0127    0.8521 C.ar      1 <0>        -0.1685
     17 C13        -2.0104   10.7107    0.9108 C.ar      1 <0>         0.0334
     18 C14        -3.4557   10.5393    0.8647 C.ar      1 <0>        -0.0457
     19 C15        -4.0514    9.2750    0.9171 C.ar      1 <0>        -0.0886
     20 C16        -5.4107    9.1659    0.8715 C.ar      1 <0>        -0.1084
     21 C17        -6.2116   10.2988    0.7715 C.ar      1 <0>        -0.0612
     22 C18        -5.6616   11.5447    0.7178 C.ar      1 <0>        -0.1461
     23 C19        -4.2673   11.6955    0.7632 C.ar      1 <0>         0.0457
     24 C20        -2.4044   13.0956    0.7507 C.ar      1 <0>         0.3432
     25 N4         -1.9043   14.3856    0.6925 N.pl3     1 <0>        -0.3386
     26 H1         -3.0704   -0.4034   -1.0747 H         1 <0>         0.1262
     27 H2         -1.2905   -0.3841   -1.0836 H         1 <0>         0.1031
     28 H3         -2.1728   -0.3945    0.4623 H         1 <0>         0.0998
     29 H4         -0.4969    1.6854    0.4971 H         1 <0>         0.2389
     30 H5          0.9802    3.6547   -0.1629 H         1 <0>         0.1421
     31 H6          1.0366    6.1102   -0.3212 H         1 <0>         0.1318
     32 H7         -3.2223    6.2303   -0.1181 H         1 <0>         0.1232
     33 H8         -3.2901    3.7745    0.0277 H         1 <0>         0.1755
     34 H9         -0.1783    8.1296   -0.8939 H         1 <0>         0.1068
     35 H10        -1.9555    8.1797   -0.8096 H         1 <0>         0.0993
     36 H11        -1.8402    8.1075    1.6663 H         1 <0>         0.1201
     37 H12        -0.0629    8.0574    1.5821 H         1 <0>         0.1304
     38 H13         1.1990   10.2905    1.0711 H         1 <0>         0.2366
     39 H14        -3.4384    8.3892    0.9946 H         1 <0>         0.1579
     40 H15        -5.8698    8.1892    0.9124 H         1 <0>         0.1626
     41 H16        -7.2854   10.1895    0.7361 H         1 <0>         0.1635
     42 H17        -6.2977   12.4141    0.6402 H         1 <0>         0.1534
     43 H18        -2.5119   15.1386    0.6237 H         1 <0>         0.2454
     44 H19        -0.9465   14.5362    0.7205 H         1 <0>         0.2839
     45 N5         -3.7558   12.9817    0.7053 N.ar      1 <0>        -0.1950
     46 H20        -4.3661   13.8041    0.6320 H         1 <0>         0.3008
@<TRIPOS>BOND
     1    1    2 1
     2    1   26 1
     3    1   27 1
     4    1   28 1
     5    2    3 2
     6    2    4 am
     7    4    5 1
     8    4   29 1
     9    5   10 ar
    10    5    6 ar
    11    6    7 ar
    12    6   30 1
    13    7    8 ar
    14    7   31 1
    15    8    9 ar
    16    8   11 1
    17    9   10 ar
    18    9   32 1
    19   10   33 1
    20   11   12 1
    21   11   34 1
    22   11   35 1
    23   12   13 1
    24   12   36 1
    25   12   37 1
    26   13   17 1
    27   13   14 1
    28   14   15 2
    29   14   38 1
    30   15   16 1
    31   16   24 ar
    32   16   17 ar
    33   17   18 ar
    34   18   23 ar
    35   18   19 ar
    36   19   20 ar
    37   19   39 1
    38   20   21 ar
    39   20   40 1
    40   21   22 ar
    41   21   41 1
    42   22   23 ar
    43   22   42 1
    44   23   45 ar
    45   24   25 1
    46   24   45 ar
    47   25   43 1
    48   25   44 1
    49   45   46 1
@<TRIPOS>MOLECULE
ZINC03932775
   43    47     0     0     0
SMALL
USER_CHARGES

@<TRIPOS>ATOM
      1 C1         -0.0127    1.0858    0.0080 C.3       1 <0>        -0.0396
      2 N1         -0.6984    1.5583    1.2133 N.am      1 <0>        -0.3641
      3 C2         -1.9821    1.2140    1.4370 C.2       1 <0>         0.4028
      4 O1         -2.5707    0.5118    0.6390 O.2       1 <0>        -0.4175
      5 O2         -2.6123    1.6482    2.5448 O.3       1 <0>        -0.2814
      6 C3         -3.9941    1.2383    2.7205 C.3       1 <0>         0.0482
      7 C4         -4.5296    1.8151    4.0057 C.ar      1 <0>        -0.0112
      8 C5         -3.7076    2.5945    4.7987 C.ar      1 <0>        -0.0551
      9 C6         -4.2003    3.1312    5.9825 C.ar      1 <0>        -0.0561
     10 C7         -5.5279    2.8694    6.3640 C.ar      1 <0>        -0.0879
     11 C8         -6.3436    2.0769    5.5555 C.ar      1 <0>        -0.0351
     12 C9         -5.8404    1.5524    4.3811 C.ar      1 <0>        -0.1332
     13 C10        -6.8943    0.7305    3.6783 C.3       1 <0>        -0.1190
     14 H1         -6.5736   -0.2048    3.2195 H         1 <0>         0.2088
     15 C11        -8.1625    0.7931    4.5386 C.3       1 <0>        -0.1698
     16 H2         -8.7876   -0.0826    4.7133 H         1 <0>         0.2149
     17 C12        -7.7815    1.6588    5.7467 C.3       1 <0>        -0.1002
     18 C13        -6.0538    3.4373    7.6251 C.2       1 <0>         0.3120
     19 O3         -7.2481    3.4384    7.8484 O.2       1 <0>        -0.2792
     20 C14        -5.1069    4.0043    8.6105 C.ar      1 <0>        -0.1246
     21 C15        -5.5191    4.2827    9.9091 C.ar      1 <0>        -0.0692
     22 C16        -4.6191    4.8117   10.8185 C.ar      1 <0>        -0.1032
     23 C17        -3.3123    5.0653   10.4444 C.ar      1 <0>        -0.0985
     24 C18        -2.8855    4.7942    9.1556 C.ar      1 <0>        -0.0690
     25 C19        -3.7773    4.2635    8.2297 C.ar      1 <0>        -0.1180
     26 C20        -3.3401    3.9684    6.8474 C.2       1 <0>         0.2998
     27 O4         -2.2879    4.4077    6.4279 O.2       1 <0>        -0.2384
     28 H3          0.0021   -0.0041    0.0020 H         1 <0>         0.0939
     29 H4          1.0099    1.4631    0.0003 H         1 <0>         0.0949
     30 H5         -0.5399    1.4469   -0.8751 H         1 <0>         0.0930
     31 H6         -0.2285    2.1189    1.8504 H         1 <0>         0.2370
     32 H7         -4.5901    1.6013    1.8832 H         1 <0>         0.1015
     33 H8         -4.0481    0.1504    2.7603 H         1 <0>         0.1117
     34 H9         -2.6887    2.7885    4.4978 H         1 <0>         0.1982
     35 H10        -8.4220    2.5398    5.7889 H         1 <0>         0.1501
     36 H11        -7.8844    1.0807    6.6650 H         1 <0>         0.1667
     37 H12        -6.5385    4.0871   10.2074 H         1 <0>         0.1592
     38 H13        -4.9400    5.0280   11.8268 H         1 <0>         0.1528
     39 H14        -2.6194    5.4776   11.1629 H         1 <0>         0.1536
     40 H15        -1.8634    4.9948    8.8699 H         1 <0>         0.1637
     41 N2         -7.9723    1.2630    3.3700 N.4       1 <0>         0.0888
     42 H16        -8.5070    0.8383    2.6032 H         1 <0>         0.2649
     43 H17        -7.9832    2.2848    3.2701 H         1 <0>         0.2538
@<TRIPOS>BOND
     1    1    2 1
     2    1   28 1
     3    1   29 1
     4    1   30 1
     5    2    3 am
     6    2   31 1
     7    3    4 2
     8    3    5 1
     9    5    6 1
    10    6    7 1
    11    6   32 1
    12    6   33 1
    13    7   12 ar
    14    7    8 ar
    15    8    9 ar
    16    8   34 1
    17    9   26 1
    18    9   10 ar
    19   10   11 ar
    20   10   18 1
    21   11   17 1
    22   11   12 ar
    23   12   13 1
    24   13   14 1
    25   13   15 1
    26   13   41 1
    27   15   16 1
    28   15   17 1
    29   15   41 1
    30   17   35 1
    31   17   36 1
    32   18   19 2
    33   18   20 1
    34   20   25 ar
    35   20   21 ar
    36   21   22 ar
    37   21   37 1
    38   22   23 ar
    39   22   38 1
    40   23   24 ar
    41   23   39 1
    42   24   25 ar
    43   24   40 1
    44   25   26 1
    45   26   27 2
    46   41   42 1
    47   41   43 1
@<TRIPOS>MOLECULE
ZINC03937864
   42    44     0     0     0
SMALL
USER_CHARGES

@<TRIPOS>ATOM
      1 C1          7.4336    8.7780    1.6640 C.3       1 <0>        -0.1969
      2 C2          7.3690    7.9980    0.3493 C.3       1 <0>        -0.0252
      3 C3          8.5109    6.9808    0.3033 C.3       1 <0>        -0.2023
      4 C4          7.5024    8.9681   -0.8263 C.3       1 <0>        -0.1968
      5 C5          6.0493    7.2762    0.2578 C.ar      1 <0>        -0.0956
      6 C6          4.8674    7.9939    0.2799 C.ar      1 <0>        -0.1109
      7 C7          3.6563    7.3355    0.1966 C.ar      1 <0>        -0.1688
      8 C8          3.6261    5.9510    0.0901 C.ar      1 <0>         0.0783
      9 C9          4.8149    5.2328    0.0730 C.ar      1 <0>        -0.1269
     10 C10         6.0228    5.8977    0.1514 C.ar      1 <0>        -0.1147
     11 N1          2.4015    5.2811    0.0061 N.am      1 <0>        -0.3319
     12 C11         2.2992    4.1529   -0.7241 C.2       1 <0>         0.3576
     13 O1          3.2438    3.7699   -1.3866 O.2       1 <0>        -0.3778
     14 C12         1.0391    3.3817   -0.7194 C.ar      1 <0>        -0.1834
     15 C13         0.9328    2.2122   -1.4762 C.ar      1 <0>        -0.0704
     16 C14        -0.2418    1.4942   -1.4718 C.ar      1 <0>        -0.1442
     17 C15        -1.3284    1.9374   -0.7155 C.ar      1 <0>         0.1204
     18 C16        -1.2209    3.1032    0.0452 C.ar      1 <0>        -0.1399
     19 C17        -0.0468    3.8219    0.0415 C.ar      1 <0>        -0.1126
     20 C18        -2.5924    1.1683   -0.7156 C.2       1 <0>        -0.2201
     21 N2         -4.5854    0.5473   -0.3105 N.2       1 <0>        -0.1464
     22 N3         -4.0499   -0.3019   -1.1153 N.2       1 <0>        -0.1687
     23 N4         -2.8412    0.0559   -1.3813 N.2       1 <0>        -0.2020
     24 H1          7.3385    8.0870    2.5015 H         1 <0>         0.0780
     25 H2          8.3881    9.3001    1.7302 H         1 <0>         0.0665
     26 H3          6.6200    9.5027    1.6968 H         1 <0>         0.0734
     27 H4          8.4649    6.4251   -0.6333 H         1 <0>         0.0802
     28 H5          9.4655    7.5028    0.3695 H         1 <0>         0.0669
     29 H6          8.4159    6.2897    1.1408 H         1 <0>         0.0772
     30 H7          6.6889    9.6928   -0.7935 H         1 <0>         0.0737
     31 H8          8.4569    9.4901   -0.7601 H         1 <0>         0.0658
     32 H9          7.4564    8.4124   -1.7629 H         1 <0>         0.0811
     33 H10         4.8916    9.0705    0.3627 H         1 <0>         0.1239
     34 H11         2.7336    7.8966    0.2139 H         1 <0>         0.1273
     35 H12         4.7947    4.1558   -0.0052 H         1 <0>         0.1641
     36 H13         6.9476    5.3402    0.1337 H         1 <0>         0.1334
     37 H14         1.6256    5.6285    0.4733 H         1 <0>         0.2358
     38 H15         1.7720    1.8713   -2.0643 H         1 <0>         0.1390
     39 H16        -0.3242    0.5902   -2.0571 H         1 <0>         0.1567
     40 H17        -2.0605    3.4436    0.6331 H         1 <0>         0.1533
     41 H18         0.0350    4.7257    0.6270 H         1 <0>         0.1040
     42 N5         -3.7231    1.4572   -0.0466 N.2       1 <0>        -0.2208
@<TRIPOS>BOND
     1    1    2 1
     2    1   24 1
     3    1   25 1
     4    1   26 1
     5    2    3 1
     6    2    4 1
     7    2    5 1
     8    3   27 1
     9    3   28 1
    10    3   29 1
    11    4   30 1
    12    4   31 1
    13    4   32 1
    14    5   10 ar
    15    5    6 ar
    16    6    7 ar
    17    6   33 1
    18    7    8 ar
    19    7   34 1
    20    8    9 ar
    21    8   11 1
    22    9   10 ar
    23    9   35 1
    24   10   36 1
    25   11   12 am
    26   11   37 1
    27   12   13 2
    28   12   14 1
    29   14   19 ar
    30   14   15 ar
    31   15   16 ar
    32   15   38 1
    33   16   17 ar
    34   16   39 1
    35   17   18 ar
    36   17   20 1
    37   18   19 ar
    38   18   40 1
    39   19   41 1
    40   20   23 2
    41   20   42 1
    42   21   22 2
    43   21   42 1
    44   22   23 1
@<TRIPOS>MOLECULE
ZINC03937865
   42    44     0     0     0
SMALL
USER_CHARGES

@<TRIPOS>ATOM
      1 C1          9.3373    8.8321    0.8943 C.3       1 <0>        -0.2074
      2 C2          7.9418    8.2150    1.0067 C.3       1 <0>        -0.1120
      3 C3          7.0260    9.1628    1.7838 C.3       1 <0>        -0.2093
      4 C4          7.3702    7.9880   -0.3943 C.3       1 <0>        -0.1131
      5 C5          6.0501    7.2689   -0.2878 C.ar      1 <0>        -0.1040
      6 C6          4.8770    7.9928   -0.1776 C.ar      1 <0>        -0.1139
      7 C7          3.6656    7.3368   -0.0803 C.ar      1 <0>        -0.1275
      8 C8          3.6264    5.9484   -0.0927 C.ar      1 <0>         0.0750
      9 C9          4.8070    5.2243   -0.1978 C.ar      1 <0>        -0.1670
     10 C10         6.0145    5.8865   -0.3010 C.ar      1 <0>        -0.1132
     11 N1          2.4015    5.2811    0.0061 N.am      1 <0>        -0.3317
     12 C11         1.2999    5.8063   -0.5658 C.2       1 <0>         0.3588
     13 O1          1.3521    6.8998   -1.0947 O.2       1 <0>        -0.3800
     14 C12         0.0289    5.0533   -0.5501 C.ar      1 <0>        -0.1831
     15 C13        -1.1131    5.5975   -1.1429 C.ar      1 <0>        -0.0702
     16 C14        -2.2973    4.8956   -1.1275 C.ar      1 <0>        -0.1441
     17 C15        -2.3584    3.6424   -0.5151 C.ar      1 <0>         0.1205
     18 C16        -1.2161    3.0958    0.0727 C.ar      1 <0>        -0.1399
     19 C17        -0.0314    3.7969    0.0580 C.ar      1 <0>        -0.1126
     20 C18        -3.6327    2.8910   -0.4940 C.2       1 <0>        -0.2203
     21 N2         -5.0879    1.3807   -0.1423 N.2       1 <0>        -0.1464
     22 N3         -5.6486    2.3451   -0.7836 N.2       1 <0>        -0.1687
     23 N4         -4.7872    3.2773   -1.0043 N.2       1 <0>        -0.2019
     24 H1          9.2718    9.7854    0.3698 H         1 <0>         0.0712
     25 H2          9.7445    8.9938    1.8924 H         1 <0>         0.0696
     26 H3          9.9897    8.1569    0.3407 H         1 <0>         0.0687
     27 H4          8.0072    7.2617    1.5312 H         1 <0>         0.0920
     28 H5          6.0318    8.7231    1.8638 H         1 <0>         0.0894
     29 H6          7.4332    9.3245    2.7818 H         1 <0>         0.0665
     30 H7          6.9605   10.1161    1.2593 H         1 <0>         0.0691
     31 H8          8.0663    7.3852   -0.9774 H         1 <0>         0.0819
     32 H9          7.2216    8.9493   -0.8862 H         1 <0>         0.0856
     33 H10         4.9082    9.0723   -0.1679 H         1 <0>         0.1285
     34 H11         2.7497    7.9027    0.0051 H         1 <0>         0.1698
     35 H12         4.7803    4.1447   -0.2033 H         1 <0>         0.1280
     36 H13         6.9324    5.3241   -0.3879 H         1 <0>         0.1232
     37 H14         2.3447    4.4402    0.4863 H         1 <0>         0.2360
     38 H15        -1.0669    6.5685   -1.6134 H         1 <0>         0.1390
     39 H16        -3.1803    5.3163   -1.5855 H         1 <0>         0.1567
     40 H17        -1.2629    2.1248    0.5431 H         1 <0>         0.1533
     41 H18         0.8512    3.3757    0.5160 H         1 <0>         0.1039
     42 N5         -3.8577    1.6816    0.0506 N.2       1 <0>        -0.2207
@<TRIPOS>BOND
     1    1    2 1
     2    1   24 1
     3    1   25 1
     4    1   26 1
     5    2    3 1
     6    2    4 1
     7    2   27 1
     8    3   28 1
     9    3   29 1
    10    3   30 1
    11    4    5 1
    12    4   31 1
    13    4   32 1
    14    5   10 ar
    15    5    6 ar
    16    6    7 ar
    17    6   33 1
    18    7    8 ar
    19    7   34 1
    20    8    9 ar
    21    8   11 1
    22    9   10 ar
    23    9   35 1
    24   10   36 1
    25   11   12 am
    26   11   37 1
    27   12   13 2
    28   12   14 1
    29   14   19 ar
    30   14   15 ar
    31   15   16 ar
    32   15   38 1
    33   16   17 ar
    34   16   39 1
    35   17   18 ar
    36   17   20 1
    37   18   19 ar
    38   18   40 1
    39   19   41 1
    40   20   23 2
    41   20   42 1
    42   21   22 2
    43   21   42 1
    44   22   23 1
@<TRIPOS>MOLECULE
ZINC03939563
   45    47     0     0     0
SMALL
USER_CHARGES

@<TRIPOS>ATOM
      1 C1          5.8267   -0.3256   -2.8593 C.3       1 <0>        -0.2330
      2 C2          4.5201   -0.9256   -2.3361 C.3       1 <0>         0.0239
      3 C3          4.7359   -2.4024   -1.9994 C.3       1 <0>        -0.2330
      4 N1          4.1005   -0.2062   -1.1309 N.am      1 <0>        -0.2031
      5 C4          2.9026    0.4298   -1.1143 C.2       1 <0>         0.0039
      6 C5          2.4920    1.1067   -0.0018 C.2       1 <0>        -0.1403
      7 C6          3.3241    1.1487    1.1383 C.2       1 <0>        -0.0285
      8 C7          4.5218    0.5013    1.1097 C.2       1 <0>        -0.2463
      9 C8          4.9089   -0.1849   -0.0550 C.2       1 <0>         0.3240
     10 O1          5.9831   -0.7633   -0.0906 O.2       1 <0>        -0.3916
     11 C9          1.1811    1.7995    0.0070 C.ar      1 <0>        -0.2120
     12 C10        -0.0093    1.0791    0.1095 C.ar      1 <0>         0.0455
     13 N2         -1.1589    1.7320    0.1089 N.ar      1 <0>        -0.2786
     14 C11        -1.1957    3.0545    0.0239 C.ar      1 <0>         0.2267
     15 N3         -0.0944    3.7815   -0.0753 N.ar      1 <0>        -0.2506
     16 C12         1.1039    3.2024   -0.0875 C.ar      1 <0>         0.1531
     17 C13         2.3337    4.0186   -0.1980 C.ar      1 <0>        -0.0779
     18 C14         3.3057    3.6970   -1.1452 C.ar      1 <0>        -0.0621
     19 C15         4.4477    4.4636   -1.2466 C.ar      1 <0>        -0.1723
     20 C16         4.6385    5.5461   -0.4049 C.ar      1 <0>        -0.0735
     21 C17         3.6850    5.8715    0.5404 C.ar      1 <0>        -0.2290
     22 C18         2.5298    5.1135    0.6513 C.ar      1 <0>         0.1320
     23 O2          1.5923    5.4318    1.5805 O.3       1 <0>        -0.1918
     24 C19         1.8609    6.5624    2.4122 C.3       1 <0>        -0.0656
     25 N4         -2.4236    3.6939    0.0327 N.pl3     1 <0>        -0.3758
     26 H1          6.5991   -0.4150   -2.0953 H         1 <0>         0.1246
     27 H2          6.1390   -0.8609   -3.7560 H         1 <0>         0.0829
     28 H3          5.6730    0.7265   -3.0991 H         1 <0>         0.0734
     29 H4          3.7478   -0.8363   -3.1001 H         1 <0>         0.0940
     30 H5          3.8050   -2.8299   -1.6267 H         1 <0>         0.0754
     31 H6          5.0481   -2.9377   -2.8961 H         1 <0>         0.0827
     32 H7          5.5083   -2.4918   -1.2355 H         1 <0>         0.1243
     33 H8          2.2684    0.4004   -1.9879 H         1 <0>         0.1570
     34 H9          3.0129    1.6840    2.0231 H         1 <0>         0.1438
     35 H10         5.1708    0.5185    1.9727 H         1 <0>         0.1638
     36 H11         0.0080    0.0018    0.1840 H         1 <0>         0.1680
     37 H12         3.1625    2.8508   -1.8009 H         1 <0>         0.1378
     38 H13         5.1981    4.2160   -1.9829 H         1 <0>         0.1342
     39 H14         5.5374    6.1389   -0.4874 H         1 <0>         0.1317
     40 H15         3.8401    6.7172    1.1939 H         1 <0>         0.1379
     41 H16         2.7811    6.3920    2.9709 H         1 <0>         0.0665
     42 H17         1.9720    7.4517    1.7917 H         1 <0>         0.0695
     43 H18         1.0345    6.7059    3.1082 H         1 <0>         0.1100
     44 H19        -2.4675    4.6606   -0.0331 H         1 <0>         0.2397
     45 H20        -3.2400    3.1751    0.1048 H         1 <0>         0.2384
@<TRIPOS>BOND
     1    1    2 1
     2    1   26 1
     3    1   27 1
     4    1   28 1
     5    2    3 1
     6    2    4 1
     7    2   29 1
     8    3   30 1
     9    3   31 1
    10    3   32 1
    11    4    9 am
    12    4    5 1
    13    5    6 2
    14    5   33 1
    15    6    7 1
    16    6   11 1
    17    7    8 2
    18    7   34 1
    19    8    9 1
    20    8   35 1
    21    9   10 2
    22   11   16 ar
    23   11   12 ar
    24   12   13 ar
    25   12   36 1
    26   13   14 ar
    27   14   15 ar
    28   14   25 1
    29   15   16 ar
    30   16   17 1
    31   17   22 ar
    32   17   18 ar
    33   18   19 ar
    34   18   37 1
    35   19   20 ar
    36   19   38 1
    37   20   21 ar
    38   20   39 1
    39   21   22 ar
    40   21   40 1
    41   22   23 1
    42   23   24 1
    43   24   41 1
    44   24   42 1
    45   24   43 1
    46   25   44 1
    47   25   45 1
@<TRIPOS>MOLECULE
ZINC03942104
   41    43     0     0     0
SMALL
USER_CHARGES

@<TRIPOS>ATOM
      1 C1          6.4680   -3.6844   -5.0235 C.3       1 <0>        -0.2234
      2 C2          7.8312   -3.0161   -4.8336 C.3       1 <0>         0.0914
      3 C3          7.6894   -1.5048   -5.0251 C.3       1 <0>        -0.2232
      4 C4          8.8185   -3.5702   -5.8628 C.3       1 <0>        -0.0065
      5 O1          8.3351   -3.3001   -7.1801 O.3       1 <0>        -0.3432
      6 N1          8.3269   -3.2930   -3.4831 N.pl3     1 <0>        -0.3153
      7 C5          7.5985   -2.8840   -2.3826 C.ar      1 <0>         0.2974
      8 C6          8.0620   -3.1429   -1.0753 C.ar      1 <0>        -0.2867
      9 C7          7.2773   -2.7031    0.0046 C.ar      1 <0>         0.0541
     10 N2          7.9469   -3.0774    1.1362 N.2       1 <0>        -0.1097
     11 H1          9.8113   -4.1180    1.3179 H         1 <0>         0.3230
     12 N3          9.1150   -3.7302    0.7139 N.pl3     1 <0>        -0.0844
     13 N4          9.1499   -3.7517   -0.5729 N.2       1 <0>        -0.0481
     14 N5          6.1360   -2.0643   -0.2389 N.ar      1 <0>        -0.2679
     15 C8          5.7403   -1.8424   -1.4817 C.ar      1 <0>         0.0043
     16 N6          6.4465   -2.2440   -2.5328 N.ar      1 <0>        -0.2989
     17 S1          4.2210   -0.9921   -1.7519 S.3       1 <0>         0.2760
     18 C9          3.7114   -0.7067   -0.0387 C.3       1 <0>        -0.2273
     19 C10         2.3964    0.0292   -0.0217 C.ar      1 <0>        -0.0794
     20 C11         1.2086   -0.6779   -0.0138 C.ar      1 <0>        -0.1107
     21 C12         0.0025   -0.0028    0.0018 C.ar      1 <0>        -0.1288
     22 C13        -0.0160    1.3794    0.0096 C.ar      1 <0>        -0.1217
     23 C14         1.1718    2.0865    0.0023 C.ar      1 <0>        -0.1288
     24 C15         2.3780    1.4114   -0.0134 C.ar      1 <0>        -0.1107
     25 H2          5.7647   -3.2897   -4.2903 H         1 <0>         0.1158
     26 H3          6.0992   -3.4784   -6.0283 H         1 <0>         0.0986
     27 H4          6.5691   -4.7611   -4.8872 H         1 <0>         0.0690
     28 H5          8.6606   -1.0288   -4.8897 H         1 <0>         0.0690
     29 H6          7.3207   -1.2988   -6.0299 H         1 <0>         0.0987
     30 H7          6.9861   -1.1101   -4.2919 H         1 <0>         0.1153
     31 H8          9.7897   -3.0941   -5.7275 H         1 <0>         0.0619
     32 H9          8.9196   -4.6469   -5.7263 H         1 <0>         0.0620
     33 H10         8.9123   -3.6241   -7.8850 H         1 <0>         0.2153
     34 H11         9.1664   -3.7633   -3.3615 H         1 <0>         0.2454
     35 H12         4.4681   -0.1104    0.4709 H         1 <0>         0.1278
     36 H13         3.5988   -1.6636    0.4710 H         1 <0>         0.1278
     37 H14         1.2231   -1.7577   -0.0202 H         1 <0>         0.1352
     38 H15        -0.9255   -0.5551    0.0076 H         1 <0>         0.1312
     39 H16        -0.9583    1.9070    0.0170 H         1 <0>         0.1296
     40 H17         1.1575    3.1664    0.0080 H         1 <0>         0.1312
     41 H18         3.3060    1.9639   -0.0192 H         1 <0>         0.1352
@<TRIPOS>BOND
     1    1    2 1
     2    1   25 1
     3    1   26 1
     4    1   27 1
     5    2    3 1
     6    2    4 1
     7    2    6 1
     8    3   28 1
     9    3   29 1
    10    3   30 1
    11    4    5 1
    12    4   31 1
    13    4   32 1
    14    5   33 1
    15    6    7 1
    16    6   34 1
    17    7   16 ar
    18    7    8 ar
    19    8    9 ar
    20    8   13 2
    21    9   14 ar
    22    9   10 2
    23   10   12 1
    24   11   12 1
    25   12   13 1
    26   14   15 ar
    27   15   16 ar
    28   15   17 1
    29   17   18 1
    30   18   19 1
    31   18   35 1
    32   18   36 1
    33   19   24 ar
    34   19   20 ar
    35   20   21 ar
    36   20   37 1
    37   21   22 ar
    38   21   38 1
    39   22   23 ar
    40   22   39 1
    41   23   24 ar
    42   23   40 1
    43   24   41 1
@<TRIPOS>MOLECULE
ZINC03942104
   41    43     0     0     0
SMALL
USER_CHARGES

@<TRIPOS>ATOM
      1 C1          6.4680   -3.6844   -5.0235 C.3       1 <0>        -0.2229
      2 C2          7.8312   -3.0161   -4.8336 C.3       1 <0>         0.0963
      3 C3          7.6894   -1.5048   -5.0251 C.3       1 <0>        -0.2227
      4 C4          8.8185   -3.5702   -5.8628 C.3       1 <0>        -0.0063
      5 O1          8.3351   -3.3001   -7.1801 O.3       1 <0>        -0.3410
      6 N1          8.3269   -3.2930   -3.4831 N.pl3     1 <0>        -0.3400
      7 C5          7.5985   -2.8840   -2.3826 C.ar      1 <0>         0.2605
      8 C6          8.0620   -3.1429   -1.0753 C.ar      1 <0>        -0.2961
      9 C7          7.2773   -2.7031    0.0046 C.ar      1 <0>         0.0665
     10 N2          7.9469   -3.0774    1.1362 N.2       1 <0>        -0.0933
     11 H1          9.8802   -4.1618   -1.1192 H         1 <0>         0.2831
     12 N3          9.1150   -3.7302    0.7139 N.2       1 <0>         0.0101
     13 N4          9.1499   -3.7517   -0.5729 N.pl3     1 <0>        -0.0826
     14 N5          6.1360   -2.0643   -0.2389 N.ar      1 <0>        -0.2416
     15 C8          5.7403   -1.8424   -1.4817 C.ar      1 <0>        -0.0150
     16 N6          6.4465   -2.2440   -2.5328 N.ar      1 <0>        -0.2715
     17 S1          4.2210   -0.9921   -1.7519 S.3       1 <0>         0.2732
     18 C9          3.7114   -0.7067   -0.0387 C.3       1 <0>        -0.2264
     19 C10         2.3964    0.0292   -0.0217 C.ar      1 <0>        -0.0798
     20 C11         1.2086   -0.6779   -0.0138 C.ar      1 <0>        -0.1103
     21 C12         0.0025   -0.0028    0.0018 C.ar      1 <0>        -0.1287
     22 C13        -0.0160    1.3794    0.0096 C.ar      1 <0>        -0.1212
     23 C14         1.1718    2.0865    0.0023 C.ar      1 <0>        -0.1287
     24 C15         2.3780    1.4114   -0.0134 C.ar      1 <0>        -0.1103
     25 H2          5.7647   -3.2897   -4.2903 H         1 <0>         0.1163
     26 H3          6.0992   -3.4784   -6.0283 H         1 <0>         0.1003
     27 H4          6.5691   -4.7611   -4.8872 H         1 <0>         0.0682
     28 H5          8.6606   -1.0288   -4.8897 H         1 <0>         0.0681
     29 H6          7.3207   -1.2988   -6.0299 H         1 <0>         0.1004
     30 H7          6.9861   -1.1101   -4.2919 H         1 <0>         0.1159
     31 H8          9.7897   -3.0941   -5.7275 H         1 <0>         0.0595
     32 H9          8.9196   -4.6469   -5.7263 H         1 <0>         0.0596
     33 H10         8.9123   -3.6241   -7.8850 H         1 <0>         0.2164
     34 H11         9.1664   -3.7633   -3.3615 H         1 <0>         0.2247
     35 H12         4.4681   -0.1104    0.4709 H         1 <0>         0.1282
     36 H13         3.5988   -1.6636    0.4710 H         1 <0>         0.1282
     37 H14         1.2231   -1.7577   -0.0202 H         1 <0>         0.1353
     38 H15        -0.9255   -0.5551    0.0076 H         1 <0>         0.1314
     39 H16        -0.9583    1.9070    0.0170 H         1 <0>         0.1298
     40 H17         1.1575    3.1664    0.0080 H         1 <0>         0.1314
     41 H18         3.3060    1.9639   -0.0192 H         1 <0>         0.1353
@<TRIPOS>BOND
     1    1    2 1
     2    1   25 1
     3    1   26 1
     4    1   27 1
     5    2    3 1
     6    2    4 1
     7    2    6 1
     8    3   28 1
     9    3   29 1
    10    3   30 1
    11    4    5 1
    12    4   31 1
    13    4   32 1
    14    5   33 1
    15    6    7 1
    16    6   34 1
    17    7   16 ar
    18    7    8 ar
    19    8    9 ar
    20    8   13 1
    21    9   14 ar
    22    9   10 1
    23   10   12 2
    24   11   13 1
    25   12   13 1
    26   14   15 ar
    27   15   16 ar
    28   15   17 1
    29   17   18 1
    30   18   19 1
    31   18   35 1
    32   18   36 1
    33   19   24 ar
    34   19   20 ar
    35   20   21 ar
    36   20   37 1
    37   21   22 ar
    38   21   38 1
    39   22   23 ar
    40   22   39 1
    41   23   24 ar
    42   23   40 1
    43   24   41 1
@<TRIPOS>MOLECULE
ZINC03946244
   44    46     0     0     0
SMALL
USER_CHARGES

@<TRIPOS>ATOM
      1 C1         -2.2293    9.9278   -0.9941 C.3       1 <0>        -0.1990
      2 C2         -2.0848    8.6563   -0.1981 C.ar      1 <0>         0.0354
      3 C3         -1.1172    7.7368   -0.5375 C.ar      1 <0>        -0.1624
      4 C4         -0.9866    6.5608    0.1933 C.ar      1 <0>         0.1581
      5 C5         -1.8249    6.3147    1.2759 C.ar      1 <0>        -0.7681
      6 C6         -2.7903    7.2328    1.6235 C.ar      1 <0>         0.0349
      7 C7         -2.9276    8.4121    0.8880 C.ar      1 <0>        -0.1483
      8 C8         -3.9640    9.4001    1.2585 C.2       1 <0>         0.3539
      9 O1         -4.1269   10.3967    0.5769 O.2       1 <0>        -0.3944
     10 N1         -4.7239    9.1991    2.3441 N.2       1 <0>        -0.4389
     11 C9         -4.8190   10.1414    3.2694 C.2       1 <0>         0.3491
     12 N2         -4.2034   11.3442    3.0836 N.pl3     1 <0>        -0.4294
     13 N3         -5.5327    9.9094    4.4082 N.pl3     1 <0>        -0.3878
     14 S1         -1.6513    4.8263    2.2029 S.o2      1 <0>         2.6624
     15 O2         -0.2702    4.7625    2.5311 O.2       1 <0>        -0.9008
     16 O3         -2.6351    4.9184    3.2242 O.2       1 <0>        -0.9059
     17 C10        -2.0793    3.5008    1.0409 C.3       1 <0>        -0.8048
     18 N4         -0.0084    5.6277   -0.1568 N.pl3     1 <0>        -0.1667
     19 C11         1.1697    5.4309    0.5156 C.2       1 <0>        -0.0156
     20 C12         1.8805    4.4616   -0.0812 C.2       1 <0>        -0.2164
     21 C13         1.0964    3.9982   -1.2294 C.ar      1 <0>        -0.0818
     22 C14        -0.0831    4.7652   -1.2307 C.ar      1 <0>        -0.0083
     23 C15        -1.0361    4.5481   -2.2193 C.ar      1 <0>        -0.1411
     24 C16        -0.8141    3.5905   -3.1856 C.ar      1 <0>        -0.1136
     25 C17         0.3484    2.8329   -3.1770 C.ar      1 <0>        -0.1513
     26 C18         1.2987    3.0306   -2.2145 C.ar      1 <0>        -0.0832
     27 H1         -1.7067   10.7371   -0.4841 H         1 <0>         0.0961
     28 H2         -1.8001    9.7863   -1.9860 H         1 <0>         0.0761
     29 H3         -3.2857   10.1797   -1.0878 H         1 <0>         0.1417
     30 H4         -0.4618    7.9273   -1.3746 H         1 <0>         0.1544
     31 H5         -3.4406    7.0414    2.4643 H         1 <0>         0.1838
     32 H6         -3.7531   11.5342    2.2457 H         1 <0>         0.2662
     33 H7         -4.2158   12.0095    3.7893 H         1 <0>         0.2147
     34 H8         -5.9706    9.0540    4.5403 H         1 <0>         0.2573
     35 H9         -5.6024   10.5997    5.0860 H         1 <0>         0.2272
     36 H10        -1.3376    3.4636    0.2429 H         1 <0>         0.1559
     37 H11        -2.0943    2.5466    1.5676 H         1 <0>         0.1410
     38 H12        -3.0630    3.6956    0.6138 H         1 <0>         0.1359
     39 H13         1.4797    5.9749    1.3957 H         1 <0>         0.1895
     40 H14         2.8477    4.0925    0.2266 H         1 <0>         0.1605
     41 H15        -1.9461    5.1296   -2.2318 H         1 <0>         0.1307
     42 H16        -1.5538    3.4259   -3.9551 H         1 <0>         0.1311
     43 H17         0.5057    2.0843   -3.9393 H         1 <0>         0.1294
     44 H18         2.2032    2.4403   -2.2166 H         1 <0>         0.1325
@<TRIPOS>BOND
     1    1    2 1
     2    1   27 1
     3    1   28 1
     4    1   29 1
     5    2    7 ar
     6    2    3 ar
     7    3    4 ar
     8    3   30 1
     9    4    5 ar
    10    4   18 1
    11    5    6 ar
    12    5   14 1
    13    6    7 ar
    14    6   31 1
    15    7    8 1
    16    8    9 2
    17    8   10 1
    18   10   11 2
    19   11   12 1
    20   11   13 1
    21   12   32 1
    22   12   33 1
    23   13   34 1
    24   13   35 1
    25   14   15 2
    26   14   16 2
    27   14   17 1
    28   17   36 1
    29   17   37 1
    30   17   38 1
    31   18   22 1
    32   18   19 1
    33   19   20 2
    34   19   39 1
    35   20   21 1
    36   20   40 1
    37   21   26 ar
    38   21   22 ar
    39   22   23 ar
    40   23   24 ar
    41   23   41 1
    42   24   25 ar
    43   24   42 1
    44   25   26 ar
    45   25   43 1
    46   26   44 1
@<TRIPOS>MOLECULE
ZINC03946515
   41    42     0     0     0
SMALL
USER_CHARGES

@<TRIPOS>ATOM
      1 C1         -2.3529    3.4208   -5.2691 C.3       1 <0>        -0.2012
      2 C2         -1.7392    2.8885   -3.9997 C.ar      1 <0>         0.0659
      3 C3         -2.3727    1.8896   -3.2936 C.ar      1 <0>        -0.2517
      4 C4         -1.8075    1.3982   -2.1229 C.ar      1 <0>         0.1993
      5 C5         -0.6017    1.9124   -1.6603 C.ar      1 <0>        -0.7916
      6 C6          0.0347    2.9143   -2.3586 C.ar      1 <0>         0.0587
      7 C7         -0.5278    3.4069   -3.5383 C.ar      1 <0>        -0.1923
      8 C8          0.1551    4.4797   -4.2934 C.2       1 <0>         0.3520
      9 O1         -0.2939    4.8524   -5.3630 O.2       1 <0>        -0.3825
     10 N1          1.2678    5.0418   -3.8013 N.2       1 <0>        -0.4302
     11 C9          1.3117    6.3480   -3.5894 C.2       1 <0>         0.3437
     12 N2          0.1921    7.1059   -3.7686 N.pl3     1 <0>        -0.4297
     13 N3          2.4765    6.9357   -3.1919 N.pl3     1 <0>        -0.3905
     14 S1          0.1098    1.2864   -0.1748 S.o2      1 <0>         2.6696
     15 O2          0.1223   -0.1243   -0.3452 O.2       1 <0>        -0.8838
     16 O3          1.3241    2.0084   -0.0221 O.2       1 <0>        -0.9086
     17 C10        -1.0600    1.7475    1.1327 C.3       1 <0>        -0.8076
     18 O4         -2.4346    0.4144   -1.4295 O.3       1 <0>        -0.1566
     19 C11        -3.6575    0.0092   -1.8616 C.ar      1 <0>         0.0503
     20 C12        -4.8004    0.3991   -1.1780 C.ar      1 <0>        -0.1314
     21 C13        -6.0428   -0.0099   -1.6225 C.ar      1 <0>        -0.1180
     22 C14        -6.1473   -0.8160   -2.7410 C.ar      1 <0>        -0.1250
     23 C15        -5.0097   -1.2106   -3.4206 C.ar      1 <0>        -0.1177
     24 C16        -3.7653   -0.7998   -2.9837 C.ar      1 <0>        -0.1350
     25 H1         -2.9041    4.3353   -5.0504 H         1 <0>         0.0920
     26 H2         -1.5652    3.6352   -5.9913 H         1 <0>         0.1446
     27 H3         -3.0331    2.6768   -5.6835 H         1 <0>         0.0743
     28 H4         -3.3099    1.4882   -3.6500 H         1 <0>         0.1533
     29 H5          0.9694    3.3162   -1.9965 H         1 <0>         0.1824
     30 H6         -0.6536    6.6797   -3.9787 H         1 <0>         0.2544
     31 H7          0.2414    8.0711   -3.6860 H         1 <0>         0.2160
     32 H8          3.2728    6.3967   -3.0645 H         1 <0>         0.2574
     33 H9          2.5086    7.8927   -3.0367 H         1 <0>         0.2253
     34 H10        -0.6887    1.3926    2.0941 H         1 <0>         0.1382
     35 H11        -1.1639    2.8322    1.1613 H         1 <0>         0.1303
     36 H12        -2.0302    1.2948    0.9284 H         1 <0>         0.1418
     37 H13        -4.7190    1.0254   -0.3020 H         1 <0>         0.1400
     38 H14        -6.9329    0.2966   -1.0932 H         1 <0>         0.1369
     39 H15        -7.1193   -1.1384   -3.0842 H         1 <0>         0.1349
     40 H16        -5.0940   -1.8403   -4.2940 H         1 <0>         0.1387
     41 H17        -2.8770   -1.1082   -3.5149 H         1 <0>         0.1528
@<TRIPOS>BOND
     1    1    2 1
     2    1   25 1
     3    1   26 1
     4    1   27 1
     5    2    7 ar
     6    2    3 ar
     7    3    4 ar
     8    3   28 1
     9    4    5 ar
    10    4   18 1
    11    5    6 ar
    12    5   14 1
    13    6    7 ar
    14    6   29 1
    15    7    8 1
    16    8    9 2
    17    8   10 1
    18   10   11 2
    19   11   12 1
    20   11   13 1
    21   12   30 1
    22   12   31 1
    23   13   32 1
    24   13   33 1
    25   14   15 2
    26   14   16 2
    27   14   17 1
    28   17   34 1
    29   17   35 1
    30   17   36 1
    31   18   19 1
    32   19   24 ar
    33   19   20 ar
    34   20   21 ar
    35   20   37 1
    36   21   22 ar
    37   21   38 1
    38   22   23 ar
    39   22   39 1
    40   23   24 ar
    41   23   40 1
    42   24   41 1
@<TRIPOS>MOLECULE
ZINC03946539
   39    41     0     0     0
SMALL
USER_CHARGES

@<TRIPOS>ATOM
      1 C1          5.0366    5.8204    0.8520 C.3       1 <0>        -0.0585
      2 N1          4.7494    4.4051    0.6053 N.pl3     1 <0>        -0.1843
      3 C2          5.6719    3.4179    0.4595 C.2       1 <0>         0.1195
      4 C3          5.0079    2.2545    0.2538 C.2       1 <0>        -0.2745
      5 C4          3.6240    2.5396    0.2642 C.2       1 <0>        -0.0653
      6 N2          3.4764    3.8347    0.4798 N.2       1 <0>        -0.0515
      7 C5          2.5396    1.5660    0.0748 C.2       1 <0>         0.0551
      8 C6          1.2468    1.9745    0.1139 C.2       1 <0>        -0.3031
      9 C7          0.0060    1.1897   -0.0473 C.2       1 <0>         0.3392
     10 O1          0.0301   -0.0100   -0.2500 O.2       1 <0>        -0.3119
     11 N3         -1.1323    1.8578    0.0344 N.am      1 <0>        -0.3644
     12 C8         -1.1546    3.1865    0.2638 C.2       1 <0>         0.2054
     13 O2         -2.1200    3.9194    0.3655 O.2       1 <0>        -0.2601
     14 S1          0.5762    3.6109    0.3752 S.3       1 <0>         0.2428
     15 O3          7.0199    3.5693    0.5158 O.3       1 <0>        -0.1693
     16 C9          7.5169    4.8985    0.6841 C.3       1 <0>        -0.0607
     17 C10         9.0355    4.8560    0.8656 C.3       1 <0>         0.0907
     18 H1          9.4870    4.3261    0.0268 H         1 <0>         0.1434
     19 C11         9.5745    6.2622    0.9200 C.ar      1 <0>        -0.1237
     20 C12         9.5786    6.9551    2.1162 C.ar      1 <0>        -0.1199
     21 C13        10.0771    8.2434    2.1670 C.ar      1 <0>        -0.1213
     22 C14        10.5630    8.8422    1.0198 C.ar      1 <0>        -0.1184
     23 C15        10.5541    8.1513   -0.1775 C.ar      1 <0>        -0.1223
     24 C16        10.0597    6.8614   -0.2274 C.ar      1 <0>        -0.1134
     25 O4          9.3509    4.1775    2.0830 O.3       1 <0>        -0.3227
     26 H2          5.2187    5.9742    1.9156 H         1 <0>         0.0877
     27 H3          5.9199    6.1159    0.2857 H         1 <0>         0.0993
     28 H4          4.1850    6.4240    0.5381 H         1 <0>         0.1175
     29 H5          5.4564    1.2832    0.1061 H         1 <0>         0.1724
     30 H6          2.7720    0.5251   -0.0955 H         1 <0>         0.1741
     31 H7         -1.9704    1.3807   -0.0698 H         1 <0>         0.2520
     32 H8          7.2728    5.4920   -0.1970 H         1 <0>         0.0900
     33 H9          7.0583    5.3492    1.5642 H         1 <0>         0.0822
     34 H10         9.1955    6.4885    3.0117 H         1 <0>         0.1251
     35 H11        10.0843    8.7831    3.1025 H         1 <0>         0.1349
     36 H12        10.9500    9.8498    1.0590 H         1 <0>         0.1348
     37 H13        10.9338    8.6192   -1.0738 H         1 <0>         0.1357
     38 H14        10.0527    6.3216   -1.1628 H         1 <0>         0.1343
     39 H15         8.9808    4.5946    2.8730 H         1 <0>         0.2091
@<TRIPOS>BOND
     1    1    2 1
     2    1   26 1
     3    1   27 1
     4    1   28 1
     5    2    6 1
     6    2    3 1
     7    3    4 2
     8    3   15 1
     9    4    5 1
    10    4   29 1
    11    5    6 2
    12    5    7 1
    13    7    8 2
    14    7   30 1
    15    8   14 1
    16    8    9 1
    17    9   10 2
    18    9   11 am
    19   11   12 am
    20   11   31 1
    21   12   13 2
    22   12   14 1
    23   15   16 1
    24   16   17 1
    25   16   32 1
    26   16   33 1
    27   17   18 1
    28   17   19 1
    29   17   25 1
    30   19   24 ar
    31   19   20 ar
    32   20   21 ar
    33   20   34 1
    34   21   22 ar
    35   21   35 1
    36   22   23 ar
    37   22   36 1
    38   23   24 ar
    39   23   37 1
    40   24   38 1
    41   25   39 1
@<TRIPOS>MOLECULE
ZINC03946861
   38    40     0     0     0
SMALL
USER_CHARGES

@<TRIPOS>ATOM
      1 C1          1.4464    5.1390    0.0151 C.3       1 <0>        -0.1381
      2 C2          0.5990    3.8928    0.0173 C.2       1 <0>        -0.0508
      3 C3          1.0791    2.5647    0.0055 C.2       1 <0>        -0.1953
      4 C4         -0.0215    1.7317    0.0116 C.2       1 <0>         0.0203
      5 N1         -1.1204    2.5174    0.0204 N.pl3     1 <0>        -0.0758
      6 N2         -0.7061    3.8542    0.0295 N.2       1 <0>        -0.0627
      7 C5         -2.4485    2.0701    0.0229 C.ar      1 <0>         0.0602
      8 C6         -2.7974    0.9224   -0.6763 C.ar      1 <0>        -0.1345
      9 C7         -4.1062    0.4812   -0.6675 C.ar      1 <0>        -0.1119
     10 C8         -5.0707    1.1873    0.0277 C.ar      1 <0>        -0.1258
     11 C9         -4.7273    2.3336    0.7207 C.ar      1 <0>        -0.1187
     12 C10        -3.4193    2.7770    0.7200 C.ar      1 <0>        -0.1122
     13 Cl1         0.0021   -0.0041    0.0020 Cl        1 <0>         0.0911
     14 C11         2.4932    2.1457   -0.0107 C.2       1 <0>        -0.0626
     15 N3          2.7961    0.8837   -0.0203 N.2       1 <0>         0.0042
     16 N4          4.1393    0.4857   -0.0357 N.pl3     1 <0>        -0.2670
     17 C12         4.4599   -0.8504   -0.0459 C.2       1 <0>         0.2211
     18 C13         5.8124   -1.2685   -0.0615 C.2       1 <0>        -0.1904
     19 N5          6.0893   -2.5434   -0.0710 N.2       1 <0>         0.0224
     20 N6          5.1507   -3.4232   -0.0663 N.am      1 <0>        -0.2505
     21 H1          5.3904   -4.3940   -0.0737 H         1 <0>         0.2857
     22 C14         3.8541   -3.0660   -0.0516 C.2       1 <0>         0.3135
     23 O1          2.9891   -3.9264   -0.0476 O.2       1 <0>        -0.3412
     24 N7          3.5064   -1.7768   -0.0358 N.2       1 <0>        -0.2509
     25 C15         6.9227   -0.2496   -0.0675 C.3       1 <0>        -0.1495
     26 H2          1.6403    5.4448   -1.0130 H         1 <0>         0.0968
     27 H3          0.9200    5.9372    0.5384 H         1 <0>         0.1002
     28 H4          2.3918    4.9364    0.5183 H         1 <0>         0.0854
     29 H5         -2.0455    0.3732   -1.2234 H         1 <0>         0.1518
     30 H6         -4.3774   -0.4137   -1.2078 H         1 <0>         0.1400
     31 H7         -6.0942    0.8426    0.0297 H         1 <0>         0.1346
     32 H8         -5.4828    2.8830    1.2628 H         1 <0>         0.1377
     33 H9         -3.1517    3.6723    1.2615 H         1 <0>         0.1524
     34 H10         3.2767    2.8891   -0.0145 H         1 <0>         0.1165
     35 H11         4.8429    1.1534   -0.0391 H         1 <0>         0.2250
     36 H12         7.2007   -0.0090    0.9586 H         1 <0>         0.0954
     37 H13         7.7870   -0.6572   -0.5921 H         1 <0>         0.1066
     38 H14         6.5837    0.6543   -0.5736 H         1 <0>         0.0773
@<TRIPOS>BOND
     1    1    2 1
     2    1   26 1
     3    1   27 1
     4    1   28 1
     5    2    6 2
     6    2    3 1
     7    3    4 2
     8    3   14 1
     9    4    5 1
    10    4   13 1
    11    5    6 1
    12    5    7 1
    13    7   12 ar
    14    7    8 ar
    15    8    9 ar
    16    8   29 1
    17    9   10 ar
    18    9   30 1
    19   10   11 ar
    20   10   31 1
    21   11   12 ar
    22   11   32 1
    23   12   33 1
    24   14   15 2
    25   14   34 1
    26   15   16 1
    27   16   17 1
    28   16   35 1
    29   17   24 2
    30   17   18 1
    31   18   19 2
    32   18   25 1
    33   19   20 1
    34   20   21 1
    35   20   22 am
    36   22   23 2
    37   22   24 1
    38   25   36 1
    39   25   37 1
    40   25   38 1
@<TRIPOS>MOLECULE
ZINC03946861
   38    40     0     0     0
SMALL
USER_CHARGES

@<TRIPOS>ATOM
      1 C1          1.4464    5.1390    0.0151 C.3       1 <0>        -0.1385
      2 C2          0.5990    3.8928    0.0173 C.2       1 <0>        -0.0501
      3 C3          1.0791    2.5647    0.0055 C.2       1 <0>        -0.1877
      4 C4         -0.0215    1.7317    0.0116 C.2       1 <0>         0.0210
      5 N1         -1.1204    2.5174    0.0204 N.pl3     1 <0>        -0.0759
      6 N2         -0.7061    3.8542    0.0295 N.2       1 <0>        -0.0597
      7 C5         -2.4485    2.0701    0.0229 C.ar      1 <0>         0.0607
      8 C6         -2.7974    0.9224   -0.6763 C.ar      1 <0>        -0.1370
      9 C7         -4.1062    0.4812   -0.6675 C.ar      1 <0>        -0.1129
     10 C8         -5.0707    1.1873    0.0277 C.ar      1 <0>        -0.1252
     11 C9         -4.7273    2.3336    0.7207 C.ar      1 <0>        -0.1173
     12 C10        -3.4193    2.7770    0.7200 C.ar      1 <0>        -0.1113
     13 Cl1         0.0021   -0.0041    0.0020 Cl        1 <0>         0.0678
     14 C11         2.4932    2.1457   -0.0107 C.2       1 <0>        -0.0677
     15 N3          2.7961    0.8837   -0.0203 N.2       1 <0>        -0.0049
     16 N4          4.1393    0.4857   -0.0357 N.pl3     1 <0>        -0.2714
     17 C12         4.4599   -0.8504   -0.0459 C.ar      1 <0>         0.2350
     18 C13         5.8124   -1.2685   -0.0615 C.ar      1 <0>        -0.2393
     19 N5          6.0893   -2.5434   -0.0764 N.ar      1 <0>         0.0550
     20 N6          5.1506   -3.4231   -0.0770 N.ar      1 <0>        -0.1853
     21 H1          2.0878   -3.4928   -0.0559 H         1 <0>         0.2790
     22 C14         3.8540   -3.0659   -0.0625 C.ar      1 <0>         0.1959
     23 O1          2.9889   -3.9262   -0.0687 O.3       1 <0>        -0.1602
     24 N7          3.5063   -1.7768   -0.0413 N.ar      1 <0>        -0.3389
     25 C15         6.9227   -0.2496   -0.0675 C.3       1 <0>        -0.1466
     26 H2          1.6403    5.4448   -1.0130 H         1 <0>         0.0980
     27 H3          0.9200    5.9372    0.5384 H         1 <0>         0.1008
     28 H4          2.3918    4.9364    0.5183 H         1 <0>         0.0872
     29 H5         -2.0455    0.3732   -1.2234 H         1 <0>         0.1488
     30 H6         -4.3774   -0.4137   -1.2078 H         1 <0>         0.1390
     31 H7         -6.0942    0.8426    0.0297 H         1 <0>         0.1355
     32 H8         -5.4828    2.8830    1.2628 H         1 <0>         0.1391
     33 H9         -3.1517    3.6723    1.2615 H         1 <0>         0.1536
     34 H10         3.2767    2.8891   -0.0145 H         1 <0>         0.1194
     35 H11         4.8429    1.1534   -0.0391 H         1 <0>         0.2310
     36 H12         7.2007   -0.0090    0.9586 H         1 <0>         0.0899
     37 H13         7.7870   -0.6572   -0.5921 H         1 <0>         0.1074
     38 H14         6.5837    0.6543   -0.5736 H         1 <0>         0.0659
@<TRIPOS>BOND
     1    1    2 1
     2    1   26 1
     3    1   27 1
     4    1   28 1
     5    2    6 2
     6    2    3 1
     7    3    4 2
     8    3   14 1
     9    4    5 1
    10    4   13 1
    11    5    6 1
    12    5    7 1
    13    7   12 ar
    14    7    8 ar
    15    8    9 ar
    16    8   29 1
    17    9   10 ar
    18    9   30 1
    19   10   11 ar
    20   10   31 1
    21   11   12 ar
    22   11   32 1
    23   12   33 1
    24   14   15 2
    25   14   34 1
    26   15   16 1
    27   16   17 1
    28   16   35 1
    29   17   24 ar
    30   17   18 ar
    31   18   25 1
    32   18   19 ar
    33   19   20 ar
    34   20   22 ar
    35   21   23 1
    36   22   23 1
    37   22   24 ar
    38   25   36 1
    39   25   37 1
    40   25   38 1
@<TRIPOS>MOLECULE
ZINC03949012
   40    42     0     0     0
SMALL
USER_CHARGES

@<TRIPOS>ATOM
      1 C1         -5.4283    3.0710    3.7036 C.3       1 <0>        -0.1373
      2 C2         -4.4785    3.2390    4.8614 C.2       1 <0>        -0.2616
      3 C3         -3.1208    3.0664    4.8896 C.2       1 <0>        -0.1684
      4 C4         -2.4984    3.3017    6.1171 C.2       1 <0>         0.0056
      5 N1         -3.2465    3.6595    7.1389 N.2       1 <0>        -0.2167
      6 S1         -4.8279    3.6967    6.4949 S.3       1 <0>         0.3989
      7 C5         -1.0310    3.1515    6.2658 C.ar      1 <0>        -0.0827
      8 C6         -0.3551    2.1582    5.5583 C.ar      1 <0>        -0.0668
      9 C7          1.0106    2.0245    5.6948 C.ar      1 <0>        -0.2247
     10 C8          1.7110    2.8706    6.5440 C.ar      1 <0>         0.1122
     11 C9          1.0401    3.8570    7.2542 C.ar      1 <0>        -0.1678
     12 C10        -0.3247    3.9996    7.1178 C.ar      1 <0>        -0.0552
     13 O1          3.0558    2.7327    6.6806 O.3       1 <0>        -0.2098
     14 C11         3.6823    1.6974    5.9206 C.3       1 <0>        -0.0651
     15 C12        -2.3555    2.6597    3.6859 C.ar      1 <0>         0.0491
     16 C13        -2.5610    1.4037    3.1178 C.ar      1 <0>        -0.1527
     17 C14        -1.8457    1.0303    1.9981 C.ar      1 <0>        -0.0290
     18 C15        -0.9267    1.9002    1.4394 C.ar      1 <0>        -0.7675
     19 C16        -0.7149    3.1460    2.0021 C.ar      1 <0>        -0.0256
     20 C17        -1.4280    3.5318    3.1190 C.ar      1 <0>        -0.1349
     21 S2         -0.0172    1.4168    0.0098 S.o2      1 <0>         2.7617
     22 O2          0.0021   -0.0041    0.0020 O.2       1 <0>        -0.9179
     23 O3          1.1718    2.1948    0.0027 O.2       1 <0>        -0.9170
     24 N2         -0.8975    1.8855   -1.3122 N.pl3     1 <0>        -0.9306
     25 H1         -5.7881    2.0425    3.6751 H         1 <0>         0.0978
     26 H2         -6.2735    3.7483    3.8258 H         1 <0>         0.0939
     27 H3         -4.9104    3.3006    2.7724 H         1 <0>         0.0981
     28 H4         -0.9000    1.4970    4.9008 H         1 <0>         0.1439
     29 H5          1.5353    1.2581    5.1437 H         1 <0>         0.1416
     30 H6          1.5878    4.5136    7.9140 H         1 <0>         0.1477
     31 H7         -0.8460    4.7671    7.6705 H         1 <0>         0.1493
     32 H8          3.2589    0.7331    6.2019 H         1 <0>         0.0698
     33 H9          3.5123    1.8728    4.8583 H         1 <0>         0.0730
     34 H10         4.7536    1.6964    6.1218 H         1 <0>         0.1101
     35 H11        -3.2782    0.7237    3.5532 H         1 <0>         0.1440
     36 H12        -2.0041    0.0573    1.5571 H         1 <0>         0.1545
     37 H13         0.0070    3.8194    1.5644 H         1 <0>         0.1561
     38 H14        -1.2648    4.5063    3.5551 H         1 <0>         0.1502
     39 H15        -1.7474    2.3376   -1.1935 H         1 <0>         0.2297
     40 H16        -0.5632    1.7079   -2.2053 H         1 <0>         0.2443
@<TRIPOS>BOND
     1    1    2 1
     2    1   25 1
     3    1   26 1
     4    1   27 1
     5    2    6 1
     6    2    3 2
     7    3    4 1
     8    3   15 1
     9    4    5 2
    10    4    7 1
    11    5    6 1
    12    7   12 ar
    13    7    8 ar
    14    8    9 ar
    15    8   28 1
    16    9   10 ar
    17    9   29 1
    18   10   11 ar
    19   10   13 1
    20   11   12 ar
    21   11   30 1
    22   12   31 1
    23   13   14 1
    24   14   32 1
    25   14   33 1
    26   14   34 1
    27   15   20 ar
    28   15   16 ar
    29   16   17 ar
    30   16   35 1
    31   17   18 ar
    32   17   36 1
    33   18   19 ar
    34   18   21 1
    35   19   20 ar
    36   19   37 1
    37   20   38 1
    38   21   22 2
    39   21   23 2
    40   21   24 1
    41   24   39 1
    42   24   40 1
@<TRIPOS>MOLECULE
ZINC03950311
   41    44     0     0     0
SMALL
USER_CHARGES

@<TRIPOS>ATOM
      1 C1         -0.0167    1.3796    0.0096 C.ar      1 <0>        -0.2167
      2 C2          0.0021   -0.0041    0.0020 C.ar      1 <0>        -0.0397
      3 C3          1.2405   -0.6427   -0.0132 C.ar      1 <0>        -0.1115
      4 C4          1.6703   -2.0511   -0.0244 C.2       1 <0>        -0.1081
      5 C5          3.0346   -2.0373   -0.0371 C.2       1 <0>        -0.0349
      6 N1          3.4796   -0.7508   -0.0348 N.pl3     1 <0>        -0.1446
      7 C6          2.4180    0.1258   -0.0204 C.ar      1 <0>         0.0776
      8 N2          2.3403    1.4500   -0.0129 N.ar      1 <0>        -0.1876
      9 C7          1.1816    2.0748    0.0019 C.ar      1 <0>        -0.0176
     10 C8          4.8900   -0.3546   -0.0460 C.3       1 <0>        -0.0093
     11 C9          5.3605   -0.1030    1.3880 C.3       1 <0>        -0.1840
     12 C10         6.8334    0.3107    1.3763 C.3       1 <0>         0.0015
     13 O1          7.2728    0.5457    2.7156 O.3       1 <0>        -0.3517
     14 C11         0.8005   -3.2385   -0.0219 C.2       1 <0>        -0.0593
     15 C12         0.5537   -4.0898    1.0462 C.2       1 <0>        -0.0287
     16 C13        -0.3809   -5.1172    0.5449 C.2       1 <0>         0.3357
     17 O2         -0.8327   -6.0403    1.1929 O.2       1 <0>        -0.2868
     18 N3         -0.6439   -4.8654   -0.7485 N.am      1 <0>        -0.3689
     19 C14         0.0173   -3.7699   -1.1592 C.2       1 <0>         0.3369
     20 O3         -0.0211   -3.2959   -2.2768 O.2       1 <0>        -0.2888
     21 C15         1.1108   -3.9871    2.4091 C.2       1 <0>        -0.1221
     22 C16         0.3684   -3.7278    3.6455 C.2       1 <0>        -0.1669
     23 C17         1.2733   -3.7190    4.6415 C.2       1 <0>        -0.1309
     24 N4          2.5108   -3.9518    4.1168 N.pl3     1 <0>        -0.1560
     25 H1          3.3330   -3.9947    4.6297 H         1 <0>         0.2404
     26 C18         2.4227   -4.1207    2.7722 C.2       1 <0>        -0.0975
     27 H2         -0.9562    1.9123    0.0170 H         1 <0>         0.1392
     28 H3         -0.9163   -0.5724    0.0074 H         1 <0>         0.1412
     29 H4          3.6655   -2.9138   -0.0472 H         1 <0>         0.1704
     30 H5          1.1649    3.1547    0.0079 H         1 <0>         0.1601
     31 H6          5.4875   -1.1508   -0.4899 H         1 <0>         0.0930
     32 H7          5.0067    0.5571   -0.6319 H         1 <0>         0.1174
     33 H8          4.7630    0.6932    1.8320 H         1 <0>         0.1193
     34 H9          5.2438   -1.0147    1.9739 H         1 <0>         0.0961
     35 H10         7.4310   -0.4855    0.9323 H         1 <0>         0.0537
     36 H11         6.9501    1.2224    0.7904 H         1 <0>         0.0637
     37 H12         8.1998    0.8124    2.7844 H         1 <0>         0.2130
     38 H13        -1.2289   -5.4001   -1.3079 H         1 <0>         0.2605
     39 H14        -0.6964   -3.5735    3.7391 H         1 <0>         0.1586
     40 H15         1.0553   -3.5538    5.6862 H         1 <0>         0.1686
     41 H16         3.2469   -4.3232    2.1043 H         1 <0>         0.1646
@<TRIPOS>BOND
     1    1    9 ar
     2    1    2 ar
     3    1   27 1
     4    2    3 ar
     5    2   28 1
     6    3    7 ar
     7    3    4 1
     8    4    5 2
     9    4   14 1
    10    5    6 1
    11    5   29 1
    12    6    7 1
    13    6   10 1
    14    7    8 ar
    15    8    9 ar
    16    9   30 1
    17   10   11 1
    18   10   31 1
    19   10   32 1
    20   11   12 1
    21   11   33 1
    22   11   34 1
    23   12   13 1
    24   12   35 1
    25   12   36 1
    26   13   37 1
    27   14   19 1
    28   14   15 2
    29   15   16 1
    30   15   21 1
    31   16   17 2
    32   16   18 am
    33   18   19 am
    34   18   38 1
    35   19   20 2
    36   21   26 2
    37   21   22 1
    38   22   23 2
    39   22   39 1
    40   23   24 1
    41   23   40 1
    42   24   25 1
    43   24   26 1
    44   26   41 1
@<TRIPOS>MOLECULE
ZINC03950313
   43    46     0     0     0
SMALL
USER_CHARGES

@<TRIPOS>ATOM
      1 C1          3.1142   -2.5309    5.0483 C.3       1 <0>        -0.0380
      2 N1          2.2311   -3.3207    4.1866 N.pl3     1 <0>        -0.1439
      3 C2          1.5500   -4.4289    4.5532 C.2       1 <0>        -0.0956
      4 C3          0.8476   -4.8609    3.4847 C.2       1 <0>        -0.2496
      5 C4          1.1146   -3.9866    2.4093 C.2       1 <0>        -0.0417
      6 N2          1.9469   -3.0579    2.8405 N.2       1 <0>        -0.0515
      7 C5          0.5565   -4.0894    1.0453 C.2       1 <0>        -0.0509
      8 C6          0.8028   -3.2373   -0.0223 C.2       1 <0>        -0.0244
      9 C7          0.0175   -3.7705   -1.1613 C.2       1 <0>         0.3329
     10 O1         -0.0241   -3.2965   -2.2784 O.2       1 <0>        -0.2814
     11 N3         -0.6412   -4.8668   -0.7482 N.am      1 <0>        -0.3662
     12 C8         -0.3755   -5.1168    0.5449 C.2       1 <0>         0.3479
     13 O2         -0.8258   -6.0401    1.1941 O.2       1 <0>        -0.2956
     14 C9          1.6705   -2.0512   -0.0249 C.2       1 <0>        -0.1224
     15 C10         3.0370   -2.0360   -0.0379 C.2       1 <0>        -0.0093
     16 N4          3.4799   -0.7512   -0.0352 N.pl3     1 <0>        -0.1421
     17 C11         2.4178    0.1256   -0.0204 C.ar      1 <0>         0.0764
     18 C12         1.2403   -0.6425   -0.0132 C.ar      1 <0>        -0.1043
     19 C13         0.0021   -0.0041    0.0020 C.ar      1 <0>        -0.0441
     20 C14        -0.0167    1.3798    0.0096 C.ar      1 <0>        -0.2156
     21 C15         1.1816    2.0747    0.0019 C.ar      1 <0>        -0.0211
     22 N5          2.3402    1.4497   -0.0125 N.ar      1 <0>        -0.1869
     23 C16         4.8901   -0.3542   -0.0470 C.3       1 <0>        -0.0085
     24 C17         5.3610   -0.1023    1.3868 C.3       1 <0>        -0.1841
     25 C18         6.8337    0.3123    1.3745 C.3       1 <0>         0.0010
     26 O3          7.2735    0.5476    2.7136 O.3       1 <0>        -0.3530
     27 H1          2.5357   -1.7517    5.5446 H         1 <0>         0.0913
     28 H2          3.5669   -3.1804    5.7975 H         1 <0>         0.0906
     29 H3          3.8971   -2.0728    4.4438 H         1 <0>         0.1096
     30 H4          1.5615   -4.8859    5.5316 H         1 <0>         0.1715
     31 H5          0.1987   -5.7237    3.4567 H         1 <0>         0.1764
     32 H6         -1.2267   -5.4027   -1.3057 H         1 <0>         0.2629
     33 H7          3.6688   -2.9119   -0.0481 H         1 <0>         0.1760
     34 H8         -0.9163   -0.5724    0.0074 H         1 <0>         0.1393
     35 H9         -0.9561    1.9126    0.0170 H         1 <0>         0.1382
     36 H10         1.1651    3.1546    0.0079 H         1 <0>         0.1591
     37 H11         5.4879   -1.1500   -0.4912 H         1 <0>         0.0936
     38 H12         5.0060    0.5576   -0.6330 H         1 <0>         0.1156
     39 H13         4.7632    0.6936    1.8310 H         1 <0>         0.1178
     40 H14         5.2451   -1.0140    1.9728 H         1 <0>         0.1001
     41 H15         7.4315   -0.4835    0.9303 H         1 <0>         0.0545
     42 H16         6.9496    1.2241    0.7885 H         1 <0>         0.0628
     43 H17         8.2003    0.8148    2.7820 H         1 <0>         0.2125
@<TRIPOS>BOND
     1    1    2 1
     2    1   27 1
     3    1   28 1
     4    1   29 1
     5    2    6 1
     6    2    3 1
     7    3    4 2
     8    3   30 1
     9    4    5 1
    10    4   31 1
    11    5    6 2
    12    5    7 1
    13    7   12 1
    14    7    8 2
    15    8    9 1
    16    8   14 1
    17    9   10 2
    18    9   11 am
    19   11   12 am
    20   11   32 1
    21   12   13 2
    22   14   18 1
    23   14   15 2
    24   15   16 1
    25   15   33 1
    26   16   17 1
    27   16   23 1
    28   17   22 ar
    29   17   18 ar
    30   18   19 ar
    31   19   20 ar
    32   19   34 1
    33   20   21 ar
    34   20   35 1
    35   21   22 ar
    36   21   36 1
    37   23   24 1
    38   23   37 1
    39   23   38 1
    40   24   25 1
    41   24   39 1
    42   24   40 1
    43   25   26 1
    44   25   41 1
    45   25   42 1
    46   26   43 1
@<TRIPOS>MOLECULE
ZINC03956598
   42    44     0     0     0
SMALL
USER_CHARGES

@<TRIPOS>ATOM
      1 C1         -1.1818    1.2867   -3.5343 C.ar      1 <0>        -0.1467
      2 C2         -1.9403    1.9615   -4.4704 C.ar      1 <0>        -0.1387
      3 C3         -1.3661    2.9667   -5.2347 C.ar      1 <0>         0.0531
      4 C4         -0.0313    3.2991   -5.0550 C.ar      1 <0>        -0.1394
      5 C5          0.7270    2.6291   -4.1153 C.ar      1 <0>        -0.1156
      6 C6          0.1530    1.6224   -3.3502 C.ar      1 <0>         0.0515
      7 N1          0.9214    0.9421   -2.3974 N.am      1 <0>        -0.3189
      8 C7          1.8725    1.5995   -1.7046 C.2       1 <0>         0.3598
      9 O1          2.1183    2.7637   -1.9625 O.2       1 <0>        -0.3481
     10 C8          2.6104    0.9131   -0.6412 C.2       1 <0>        -0.1458
     11 C9          3.4917    1.6268    0.1673 C.2       1 <0>         0.0727
     12 C10         3.5307    3.0225    0.0968 C.2       1 <0>        -0.0876
     13 C11         4.6773    3.8088    0.1045 C.2       1 <0>        -0.1242
     14 C12         4.2564    5.1325    0.0147 C.2       1 <0>        -0.2521
     15 C13         2.8781    5.1178   -0.0352 C.2       1 <0>         0.0881
     16 O2          2.4592    3.8444    0.0150 O.3       1 <0>        -0.0284
     17 N2          2.0667    6.2261   -0.1218 N.pl3     1 <0>        -0.1482
     18 C14         2.3277    7.1578    0.9851 C.3       1 <0>        -0.1116
     19 C15         1.4489    8.4002    0.8173 C.3       1 <0>        -0.0134
     20 O3          0.0765    8.0024    0.7565 O.3       1 <0>        -0.2787
     21 C16        -0.2133    7.0954   -0.3105 C.3       1 <0>        -0.0158
     22 C17         0.6486    5.8398   -0.1541 C.3       1 <0>        -0.1233
     23 C18         2.4257   -0.4916   -0.4332 C.1       1 <0>        -0.0962
     24 N3          2.2791   -1.6059   -0.2682 N.1       1 <0>        -0.0386
     25 O4         -2.1121    3.6269   -6.1602 O.3       1 <0>        -0.2916
     26 H1         -1.6277    0.5009   -2.9427 H         1 <0>         0.1344
     27 H2         -2.9796    1.7036   -4.6106 H         1 <0>         0.1414
     28 H3          0.4150    4.0818   -5.6504 H         1 <0>         0.1441
     29 H4          1.7660    2.8882   -3.9753 H         1 <0>         0.1689
     30 H5          0.7720   -0.0031   -2.2388 H         1 <0>         0.2385
     31 H6          4.1449    1.1021    0.8488 H         1 <0>         0.1598
     32 H7          5.6975    3.4598    0.1656 H         1 <0>         0.1589
     33 H8          4.8898    6.0070   -0.0066 H         1 <0>         0.1626
     34 H9          2.0941    6.6720    1.9325 H         1 <0>         0.0830
     35 H10         3.3776    7.4506    0.9746 H         1 <0>         0.1084
     36 H11         1.7196    8.9157   -0.1042 H         1 <0>         0.0826
     37 H12         1.5968    9.0687    1.6653 H         1 <0>         0.1143
     38 H13         0.0090    7.5729   -1.2648 H         1 <0>         0.0840
     39 H14        -1.2674    6.8196   -0.2777 H         1 <0>         0.1174
     40 H15         0.4729    5.1704   -0.9962 H         1 <0>         0.1305
     41 H16         0.3884    5.3322    0.7747 H         1 <0>         0.0840
     42 H17        -2.0974    3.2225   -7.0384 H         1 <0>         0.2248
@<TRIPOS>BOND
     1    1    6 ar
     2    1    2 ar
     3    1   26 1
     4    2    3 ar
     5    2   27 1
     6    3    4 ar
     7    3   25 1
     8    4    5 ar
     9    4   28 1
    10    5    6 ar
    11    5   29 1
    12    6    7 1
    13    7    8 am
    14    7   30 1
    15    8    9 2
    16    8   10 1
    17   10   11 2
    18   10   23 1
    19   11   12 1
    20   11   31 1
    21   12   16 1
    22   12   13 2
    23   13   14 1
    24   13   32 1
    25   14   15 2
    26   14   33 1
    27   15   16 1
    28   15   17 1
    29   17   22 1
    30   17   18 1
    31   18   19 1
    32   18   34 1
    33   18   35 1
    34   19   20 1
    35   19   36 1
    36   19   37 1
    37   20   21 1
    38   21   22 1
    39   21   38 1
    40   21   39 1
    41   22   40 1
    42   22   41 1
    43   23   24 3
    44   25   42 1
@<TRIPOS>MOLECULE
ZINC03957125
   43    44     0     0     0
SMALL
USER_CHARGES

@<TRIPOS>ATOM
      1 C1          0.5186   -2.4745    0.8060 C.3       1 <0>        -0.1836
      2 C2          0.6248   -0.9807    0.6376 C.ar      1 <0>        -0.0190
      3 C3         -0.5189   -0.2047    0.6144 C.ar      1 <0>        -0.1550
      4 C4         -0.4215    1.1655    0.4599 C.ar      1 <0>        -0.0257
      5 C5          0.8197    1.7598    0.3291 C.ar      1 <0>        -0.7582
      6 C6          1.9634    0.9838    0.3522 C.ar      1 <0>        -0.0105
      7 C7          1.8660   -0.3864    0.5067 C.ar      1 <0>        -0.1549
      8 S1          0.9438    3.5063    0.1317 S.o2      1 <0>         2.7815
      9 O1          2.1839    3.7547   -0.5162 O.2       1 <0>        -0.8957
     10 O2         -0.2971    3.9436   -0.4051 O.2       1 <0>        -0.9165
     11 N1          1.0616    4.1632    1.6472 N.pl3     1 <0>        -0.8099
     12 N2          2.1268    3.8065    2.4845 N.2       1 <0>        -0.0158
     13 C8          2.2191    4.3212    3.6720 C.2       1 <0>        -0.0374
     14 C9          1.1806    5.3028    4.1506 C.3       1 <0>        -0.2139
     15 C10         3.3402    3.9457    4.5532 C.ar      1 <0>        -0.0606
     16 C11         3.4445    4.5032    5.8302 C.ar      1 <0>        -0.0920
     17 C12         4.4899    4.1447    6.6532 C.ar      1 <0>        -0.1689
     18 C13         5.4471    3.2394    6.2097 C.ar      1 <0>         0.0787
     19 C14         5.3502    2.6873    4.9376 C.ar      1 <0>        -0.1347
     20 C15         4.3041    3.0357    4.1112 C.ar      1 <0>        -0.0700
     21 N3          6.5100    2.8829    7.0456 N.am      1 <0>        -0.3317
     22 C16         7.7191    2.6075    6.5179 C.2       1 <0>         0.2994
     23 O3          7.9118    2.7611    5.3303 O.2       1 <0>        -0.3464
     24 C17         8.8318    2.1087    7.4034 C.3       1 <0>        -0.2412
     25 H1          0.4383   -2.9458   -0.1736 H         1 <0>         0.0937
     26 H2          1.4069   -2.8466    1.3165 H         1 <0>         0.0861
     27 H3         -0.3661   -2.7115    1.3969 H         1 <0>         0.0853
     28 H4         -1.4887   -0.6690    0.7166 H         1 <0>         0.1352
     29 H5         -1.3154    1.7712    0.4370 H         1 <0>         0.1463
     30 H6          2.9332    1.4482    0.2503 H         1 <0>         0.1557
     31 H7          2.7597   -0.9926    0.5255 H         1 <0>         0.1368
     32 H8          0.3932    4.7950    1.9553 H         1 <0>         0.2279
     33 H9          0.3724    4.7642    4.6454 H         1 <0>         0.0974
     34 H10         1.6364    6.0000    4.8536 H         1 <0>         0.0980
     35 H11         0.7820    5.8540    3.2990 H         1 <0>         0.0877
     36 H12         2.7039    5.2103    6.1736 H         1 <0>         0.1343
     37 H13         4.5681    4.5710    7.6424 H         1 <0>         0.1317
     38 H14         6.0956    1.9840    4.5967 H         1 <0>         0.1641
     39 H15         4.2291    2.6058    3.1233 H         1 <0>         0.1563
     40 H16         6.3770    2.8339    8.0052 H         1 <0>         0.2324
     41 H17         8.5302    1.1727    7.8735 H         1 <0>         0.0965
     42 H18         9.7267    1.9423    6.8037 H         1 <0>         0.1207
     43 H19         9.0434    2.8504    8.1737 H         1 <0>         0.0958
@<TRIPOS>BOND
     1    1    2 1
     2    1   25 1
     3    1   26 1
     4    1   27 1
     5    2    7 ar
     6    2    3 ar
     7    3    4 ar
     8    3   28 1
     9    4    5 ar
    10    4   29 1
    11    5    6 ar
    12    5    8 1
    13    6    7 ar
    14    6   30 1
    15    7   31 1
    16    8    9 2
    17    8   10 2
    18    8   11 1
    19   11   12 1
    20   11   32 1
    21   12   13 2
    22   13   14 1
    23   13   15 1
    24   14   33 1
    25   14   34 1
    26   14   35 1
    27   15   20 ar
    28   15   16 ar
    29   16   17 ar
    30   16   36 1
    31   17   18 ar
    32   17   37 1
    33   18   19 ar
    34   18   21 1
    35   19   20 ar
    36   19   38 1
    37   20   39 1
    38   21   22 am
    39   21   40 1
    40   22   23 2
    41   22   24 1
    42   24   41 1
    43   24   42 1
    44   24   43 1
@<TRIPOS>MOLECULE
ZINC03957475
   42    44     0     0     0
SMALL
USER_CHARGES

@<TRIPOS>ATOM
      1 C1         -0.6146    1.1554    1.3800 C.3       1 <0>        -0.2090
      2 C2         -0.0893    1.6034    0.0405 C.2       1 <0>        -0.0712
      3 N1         -0.8789    1.5412   -1.0464 N.2       1 <0>        -0.0234
      4 N2         -2.0859    1.0982   -0.9423 N.pl3     1 <0>        -0.2274
      5 C3         -2.8936    1.0346   -2.0541 C.ar      1 <0>         0.1507
      6 C4         -2.4112    1.4549   -3.2978 C.ar      1 <0>        -0.1713
      7 C5         -3.2239    1.3834   -4.4082 C.ar      1 <0>        -0.0345
      8 C6         -4.5201    0.9069   -4.2927 C.ar      1 <0>        -0.1215
      9 C7         -5.0063    0.4938   -3.0626 C.ar      1 <0>        -0.0271
     10 C8         -4.2028    0.5548   -1.9448 C.ar      1 <0>        -0.2101
     11 N3         -5.3891    0.8385   -5.4891 N.pl3     1 <0>         0.4658
     12 O1         -6.6213    0.3857   -5.3829 O.2       1 <0>        -0.3511
     13 O2         -4.9302    1.2303   -6.6597 O.3       1 <0>        -0.3476
     14 C9          1.2066    2.0730   -0.0722 C.2       1 <0>        -0.2727
     15 C10         2.3378    1.1456   -0.2573 C.2       1 <0>         0.2104
     16 C11         3.6365    1.6926   -0.3707 C.ar      1 <0>        -0.1308
     17 C12         4.7436    0.8427   -0.5535 C.ar      1 <0>        -0.0458
     18 C13         5.9960    1.3713   -0.6572 C.ar      1 <0>        -0.1755
     19 C14         6.1889    2.7459   -0.5833 C.ar      1 <0>        -0.0588
     20 C15         5.1202    3.5991   -0.4051 C.ar      1 <0>        -0.1949
     21 C16         3.8293    3.0883   -0.2958 C.ar      1 <0>         0.1344
     22 N4          2.7707    3.9543   -0.1170 N.am      1 <0>        -0.2401
     23 C17         1.5022    3.5245   -0.0045 C.2       1 <0>         0.3672
     24 O3          0.5999    4.3234    0.1518 O.2       1 <0>        -0.3646
     25 C18         3.0385    5.3929   -0.0466 C.3       1 <0>        -0.0822
     26 O4          2.1395   -0.1818   -0.3209 O.3       1 <0>        -0.2519
     27 H1         -1.1541    1.9767    1.8519 H         1 <0>         0.1093
     28 H2         -1.2886    0.3100    1.2418 H         1 <0>         0.0650
     29 H3          0.2188    0.8556    2.0153 H         1 <0>         0.0992
     30 H4         -2.4240    0.8098   -0.0801 H         1 <0>         0.2212
     31 H5         -1.4029    1.8310   -3.3883 H         1 <0>         0.1756
     32 H6         -2.8513    1.7035   -5.3701 H         1 <0>         0.1698
     33 H7         -6.0174    0.1235   -2.9797 H         1 <0>         0.1682
     34 H8         -4.5830    0.2325   -0.9867 H         1 <0>         0.1450
     35 H9          4.6012   -0.2263   -0.6118 H         1 <0>         0.1520
     36 H10         6.8441    0.7175   -0.7974 H         1 <0>         0.1389
     37 H11         7.1868    3.1503   -0.6667 H         1 <0>         0.1372
     38 H12         5.2847    4.6651   -0.3498 H         1 <0>         0.1451
     39 H13         2.1010    5.9304    0.0962 H         1 <0>         0.1324
     40 H14         3.7059    5.5977    0.7905 H         1 <0>         0.0821
     41 H15         3.5078    5.7209   -0.9741 H         1 <0>         0.0839
     42 H16         1.2227   -0.4892   -0.3203 H         1 <0>         0.2580
@<TRIPOS>BOND
     1    1    2 1
     2    1   27 1
     3    1   28 1
     4    1   29 1
     5    2    3 2
     6    2   14 1
     7    3    4 1
     8    4    5 1
     9    4   30 1
    10    5   10 ar
    11    5    6 ar
    12    6    7 ar
    13    6   31 1
    14    7    8 ar
    15    7   32 1
    16    8    9 ar
    17    8   11 1
    18    9   10 ar
    19    9   33 1
    20   10   34 1
    21   11   12 2
    22   11   13 1
    23   14   23 1
    24   14   15 2
    25   15   16 1
    26   15   26 1
    27   16   21 ar
    28   16   17 ar
    29   17   18 ar
    30   17   35 1
    31   18   19 ar
    32   18   36 1
    33   19   20 ar
    34   19   37 1
    35   20   21 ar
    36   20   38 1
    37   21   22 1
    38   22   23 am
    39   22   25 1
    40   23   24 2
    41   25   39 1
    42   25   40 1
    43   25   41 1
    44   26   42 1
@<TRIPOS>MOLECULE
ZINC03959725
   41    44     0     0     0
SMALL
USER_CHARGES

@<TRIPOS>ATOM
      1 C1          1.3680    5.1463    6.4117 C.ar      1 <0>        -0.1060
      2 C2          0.3727    5.5560    7.2808 C.ar      1 <0>        -0.1359
      3 C3         -0.9198    5.1018    7.1176 C.ar      1 <0>        -0.0776
      4 C4         -1.2220    4.2271    6.0731 C.ar      1 <0>        -0.0433
      5 C5         -0.2124    3.8131    5.2035 C.ar      1 <0>        -0.1076
      6 C6          1.0749    4.2796    5.3739 C.ar      1 <0>        -0.1303
      7 C7         -2.6055    3.7363    5.8923 C.2       1 <0>         0.0969
      8 N1         -3.4886    3.5301    6.8496 N.2       1 <0>        -0.2778
      9 C8         -4.6296    3.0866    6.3222 C.2       1 <0>         0.1148
     10 N2         -4.5013    3.0058    5.0191 N.2       1 <0>        -0.1123
     11 N3         -3.1944    3.4159    4.7088 N.pl3     1 <0>        -0.1267
     12 C9         -2.6158    3.4867    3.4357 C.ar      1 <0>         0.1259
     13 C10        -2.7931    2.4472    2.5320 C.ar      1 <0>        -0.1390
     14 C11        -2.2206    2.5198    1.2772 C.ar      1 <0>        -0.0158
     15 C12        -1.4711    3.6259    0.9205 C.ar      1 <0>        -0.7689
     16 C13        -1.2880    4.6601    1.8201 C.ar      1 <0>        -0.0224
     17 C14        -1.8629    4.5963    3.0742 C.ar      1 <0>        -0.1589
     18 S1         -0.7420    3.7144   -0.6811 S.o2      1 <0>         2.7611
     19 O1         -0.6022    2.3762   -1.1382 O.2       1 <0>        -0.9139
     20 O2          0.3621    4.6028   -0.5761 O.2       1 <0>        -0.9113
     21 N4         -1.8428    4.4434   -1.6806 N.pl3     1 <0>        -0.9221
     22 O3         -5.7503    2.7734    7.0230 O.3       1 <0>        -0.1309
     23 C15        -5.6945    2.9343    8.4418 C.3       1 <0>        -0.0310
     24 C16        -6.3969    1.8806    9.3004 C.3       1 <0>        -0.2165
     25 C17        -6.9972    3.2814    9.1652 C.3       1 <0>        -0.2132
     26 H1          2.3782    5.5047    6.5437 H         1 <0>         0.1355
     27 H2          0.6079    6.2327    8.0890 H         1 <0>         0.1380
     28 H3         -1.6960    5.4226    7.7965 H         1 <0>         0.1513
     29 H4         -0.4390    3.1326    4.3961 H         1 <0>         0.1425
     30 H5          1.8563    3.9637    4.6986 H         1 <0>         0.1406
     31 H6         -3.3783    1.5831    2.8099 H         1 <0>         0.1629
     32 H7         -2.3582    1.7118    0.5740 H         1 <0>         0.1594
     33 H8         -0.6981    5.5204    1.5402 H         1 <0>         0.1576
     34 H9         -1.7228    5.4061    3.7749 H         1 <0>         0.1551
     35 H10        -2.1785    3.9714   -2.4587 H         1 <0>         0.2450
     36 H11        -2.1519    5.3425   -1.4880 H         1 <0>         0.2353
     37 H12        -4.7725    3.3672    8.8299 H         1 <0>         0.1548
     38 H13        -6.9016    1.0647    8.7831 H         1 <0>         0.1255
     39 H14        -5.9370    1.6201   10.2537 H         1 <0>         0.1171
     40 H15        -6.9322    3.9424   10.0294 H         1 <0>         0.1169
     41 H16        -7.8968    3.3870    8.5589 H         1 <0>         0.1253
@<TRIPOS>BOND
     1    1    6 ar
     2    1    2 ar
     3    1   26 1
     4    2    3 ar
     5    2   27 1
     6    3    4 ar
     7    3   28 1
     8    4    5 ar
     9    4    7 1
    10    5    6 ar
    11    5   29 1
    12    6   30 1
    13    7   11 1
    14    7    8 2
    15    8    9 1
    16    9   10 2
    17    9   22 1
    18   10   11 1
    19   11   12 1
    20   12   17 ar
    21   12   13 ar
    22   13   14 ar
    23   13   31 1
    24   14   15 ar
    25   14   32 1
    26   15   16 ar
    27   15   18 1
    28   16   17 ar
    29   16   33 1
    30   17   34 1
    31   18   19 2
    32   18   20 2
    33   18   21 1
    34   21   35 1
    35   21   36 1
    36   22   23 1
    37   23   25 1
    38   23   24 1
    39   23   37 1
    40   24   25 1
    41   24   38 1
    42   24   39 1
    43   25   40 1
    44   25   41 1
@<TRIPOS>MOLECULE
ZINC03959951
   41    43     0     0     0
SMALL
USER_CHARGES

@<TRIPOS>ATOM
      1 C1         -6.9340    7.4875   -4.3685 C.3       1 <0>        -0.1755
      2 C2         -5.9596    6.3431   -4.4777 C.ar      1 <0>        -0.0956
      3 C3         -4.8479    6.4602   -5.2932 C.ar      1 <0>        -0.1019
      4 C4         -3.9491    5.4190   -5.3938 C.ar      1 <0>        -0.0888
      5 C5         -4.1678    4.2389   -4.6792 C.ar      1 <0>        -0.0413
      6 C6         -5.2906    4.1254   -3.8574 C.ar      1 <0>        -0.1376
      7 C7         -6.1806    5.1780   -3.7606 C.ar      1 <0>         0.0928
      8 F1         -7.2680    5.0710   -2.9661 F         1 <0>        -0.1056
      9 C8         -3.2113    3.1174   -4.7880 C.2       1 <0>         0.0662
     10 C9         -3.0537    2.4687   -5.9768 C.2       1 <0>        -0.2047
     11 C10        -2.1171    1.3070   -6.2673 C.3       1 <0>        -0.1687
     12 C11        -2.6698    0.7772   -7.6130 C.3       1 <0>        -0.0178
     13 O1         -3.3023    1.9358   -8.1835 O.3       1 <0>        -0.2309
     14 C12        -3.7248    2.7443   -7.1927 C.2       1 <0>         0.3499
     15 O2         -4.5759    3.6039   -7.3258 O.2       1 <0>        -0.2858
     16 C13        -2.4256    2.6991   -3.6080 C.ar      1 <0>        -0.0010
     17 C14        -1.4856    3.5667   -3.0478 C.ar      1 <0>        -0.1273
     18 C15        -0.7562    3.1700   -1.9464 C.ar      1 <0>        -0.0265
     19 C16        -0.9538    1.9155   -1.3968 C.ar      1 <0>        -0.7600
     20 C17        -1.8796    1.0486   -1.9504 C.ar      1 <0>        -0.0285
     21 C18        -2.6203    1.4346   -3.0481 C.ar      1 <0>        -0.1391
     22 S1         -0.0172    1.4168    0.0098 S.o2      1 <0>         2.7595
     23 O3          0.0021   -0.0041    0.0020 O.2       1 <0>        -0.9122
     24 O4          1.1718    2.1948    0.0027 O.2       1 <0>        -0.9113
     25 N1         -0.8720    1.8711    1.3534 N.pl3     1 <0>        -0.9203
     26 H1         -6.6311    8.1462   -3.5546 H         1 <0>         0.0890
     27 H2         -6.9439    8.0468   -5.3041 H         1 <0>         0.0866
     28 H3         -7.9318    7.0973   -4.1680 H         1 <0>         0.0942
     29 H4         -4.6814    7.3711   -5.8491 H         1 <0>         0.1411
     30 H5         -3.0797    5.5143   -6.0275 H         1 <0>         0.1386
     31 H6         -5.4633    3.2172   -3.2990 H         1 <0>         0.1451
     32 H7         -1.0893    1.6536   -6.3756 H         1 <0>         0.1164
     33 H8         -2.1896    0.5453   -5.4910 H         1 <0>         0.1098
     34 H9         -3.3978   -0.0172   -7.4489 H         1 <0>         0.0964
     35 H10        -1.8584    0.4280   -8.2515 H         1 <0>         0.1177
     36 H11        -1.3299    4.5458   -3.4761 H         1 <0>         0.1464
     37 H12        -0.0289    3.8400   -1.5120 H         1 <0>         0.1542
     38 H13        -2.0255    0.0691   -1.5195 H         1 <0>         0.1533
     39 H14        -3.3454    0.7586   -3.4767 H         1 <0>         0.1423
     40 H15        -0.7278    2.7458    1.7471 H         1 <0>         0.2406
     41 H16        -1.5169    1.2626    1.7467 H         1 <0>         0.2404
@<TRIPOS>BOND
     1    1    2 1
     2    1   26 1
     3    1   27 1
     4    1   28 1
     5    2    7 ar
     6    2    3 ar
     7    3    4 ar
     8    3   29 1
     9    4    5 ar
    10    4   30 1
    11    5    6 ar
    12    5    9 1
    13    6    7 ar
    14    6   31 1
    15    7    8 1
    16    9   10 2
    17    9   16 1
    18   10   14 1
    19   10   11 1
    20   11   12 1
    21   11   32 1
    22   11   33 1
    23   12   13 1
    24   12   34 1
    25   12   35 1
    26   13   14 1
    27   14   15 2
    28   16   21 ar
    29   16   17 ar
    30   17   18 ar
    31   17   36 1
    32   18   19 ar
    33   18   37 1
    34   19   20 ar
    35   19   22 1
    36   20   21 ar
    37   20   38 1
    38   21   39 1
    39   22   23 2
    40   22   24 2
    41   22   25 1
    42   25   40 1
    43   25   41 1
@<TRIPOS>MOLECULE
ZINC03961836
   42    45     0     0     0
SMALL
USER_CHARGES

@<TRIPOS>ATOM
      1 C1         -6.9372    1.5182   -0.6494 C.3       1 <0>        -0.0526
      2 N1         -6.4641    0.3316    0.0679 N.pl3     1 <0>        -0.3334
      3 C2         -7.4144   -0.5084    0.8010 C.3       1 <0>        -0.0508
      4 C3         -5.1101    0.0019    0.0528 C.ar      1 <0>         0.1436
      5 C4         -4.2088    0.8004   -0.6437 C.ar      1 <0>        -0.2106
      6 C5         -2.8699    0.4767   -0.6602 C.ar      1 <0>        -0.0611
      7 C6         -2.4180   -0.6538    0.0224 C.ar      1 <0>        -0.1212
      8 C7         -3.3254   -1.4568    0.7153 C.ar      1 <0>        -0.0349
      9 C8         -4.6623   -1.1252    0.7338 C.ar      1 <0>        -0.2215
     10 C9         -0.9800   -1.0039    0.0064 C.ar      1 <0>         0.1552
     11 C10        -0.0005   -0.0246    0.2200 C.ar      1 <0>        -0.1951
     12 C11        -0.0235    1.4215    0.4859 C.ar      1 <0>        -0.0843
     13 C12        -1.0417    2.3577    0.6188 C.ar      1 <0>        -0.0147
     14 C13        -0.7222    3.6884    0.8811 C.ar      1 <0>        -0.1652
     15 C14         0.6187    4.0750    0.9976 C.ar      1 <0>        -0.0764
     16 C15         1.6191    3.1577    0.8620 C.ar      1 <0>        -0.1595
     17 C16         1.3199    1.8210    0.6053 C.ar      1 <0>         0.0637
     18 N2          2.1205    0.7097    0.4276 N.pl3     1 <0>        -0.2048
     19 H1          3.0899    0.7155    0.4622 H         1 <0>         0.2538
     20 C17         1.3522   -0.4053    0.1958 C.ar      1 <0>         0.1449
     21 N3          1.6469   -1.6839   -0.0300 N.ar      1 <0>        -0.2537
     22 C18         0.6953   -2.5724   -0.2262 C.ar      1 <0>         0.0525
     23 N4         -0.5850   -2.2588   -0.2124 N.ar      1 <0>        -0.2340
     24 C19        -1.7959    4.6906    1.0299 C.2       1 <0>         0.3553
     25 O1         -2.9598    4.3542    0.9286 O.2       1 <0>        -0.3728
     26 N5         -1.4858    5.9785    1.2780 N.am      1 <0>        -0.4299
     27 H2         -7.2023    1.2439   -1.6705 H         1 <0>         0.0651
     28 H3         -7.8131    1.9237   -0.1430 H         1 <0>         0.0784
     29 H4         -6.1480    2.2699   -0.6684 H         1 <0>         0.0943
     30 H5         -7.5023   -0.1481    1.8260 H         1 <0>         0.0678
     31 H6         -8.3892   -0.4633    0.3152 H         1 <0>         0.0777
     32 H7         -7.0589   -1.5388    0.8073 H         1 <0>         0.0857
     33 H8         -4.5590    1.6750   -1.1717 H         1 <0>         0.1416
     34 H9         -2.1706    1.0969   -1.2011 H         1 <0>         0.1389
     35 H10        -2.9788   -2.3345    1.2406 H         1 <0>         0.1414
     36 H11        -5.3641   -1.7435    1.2739 H         1 <0>         0.1349
     37 H12        -2.0741    2.0553    0.5225 H         1 <0>         0.1773
     38 H13         0.8628    5.1080    1.1968 H         1 <0>         0.1275
     39 H14         2.6491    3.4691    0.9545 H         1 <0>         0.1332
     40 H15         0.9750   -3.5999   -0.4062 H         1 <0>         0.1983
     41 H16        -0.5572    6.2469    1.3588 H         1 <0>         0.2147
     42 H17        -2.1913    6.6371    1.3757 H         1 <0>         0.2308
@<TRIPOS>BOND
     1    1    2 1
     2    1   27 1
     3    1   28 1
     4    1   29 1
     5    2    3 1
     6    2    4 1
     7    3   30 1
     8    3   31 1
     9    3   32 1
    10    4    9 ar
    11    4    5 ar
    12    5    6 ar
    13    5   33 1
    14    6    7 ar
    15    6   34 1
    16    7    8 ar
    17    7   10 1
    18    8    9 ar
    19    8   35 1
    20    9   36 1
    21   10   23 ar
    22   10   11 ar
    23   11   20 ar
    24   11   12 1
    25   12   17 ar
    26   12   13 ar
    27   13   14 ar
    28   13   37 1
    29   14   15 ar
    30   14   24 1
    31   15   16 ar
    32   15   38 1
    33   16   17 ar
    34   16   39 1
    35   17   18 1
    36   18   19 1
    37   18   20 1
    38   20   21 ar
    39   21   22 ar
    40   22   23 ar
    41   22   40 1
    42   24   25 2
    43   24   26 am
    44   26   41 1
    45   26   42 1
@<TRIPOS>MOLECULE
ZINC03961966
   43    46     0     0     0
SMALL
USER_CHARGES

@<TRIPOS>ATOM
      1 C1         -2.9344    4.6958   -2.3891 C.ar      1 <0>        -0.1000
      2 C2         -2.1380    4.6717   -1.2623 C.ar      1 <0>        -0.1305
      3 C3         -0.9211    5.3560   -1.2527 C.ar      1 <0>        -0.1200
      4 C4         -0.5147    6.0629   -2.3849 C.ar      1 <0>        -0.1618
      5 C5         -1.3197    6.0768   -3.5133 C.ar      1 <0>         0.1061
      6 C6         -2.5322    5.3963   -3.5107 C.ar      1 <0>        -0.1805
      7 N1         -0.9150    6.7787   -4.6515 N.pl3     1 <0>        -0.4210
      8 C7         -0.0660    5.3322   -0.0463 C.2       1 <0>         0.3321
      9 O1         -0.4531    4.7733    0.9628 O.2       1 <0>        -0.2770
     10 C8          1.2499    5.9829   -0.0664 C.2       1 <0>        -0.2063
     11 C9          2.4672    5.3682   -0.1529 C.2       1 <0>        -0.0364
     12 N2          3.4509    6.3025   -0.1466 N.pl3     1 <0>        -0.1280
     13 C10         2.9185    7.5623   -0.0459 C.ar      1 <0>         0.1260
     14 C11         1.5220    7.4270    0.0092 C.ar      1 <0>        -0.2418
     15 C12         0.7359    8.5803    0.1154 C.ar      1 <0>         0.2513
     16 N3          1.3486    9.7608    0.1598 N.ar      1 <0>        -0.3106
     17 C13         2.6649    9.8447    0.1053 C.ar      1 <0>         0.0778
     18 N4          3.4406    8.7865    0.0049 N.ar      1 <0>        -0.2787
     19 N5         -0.6441    8.4951    0.1732 N.pl3     1 <0>        -0.3768
     20 C14         4.8832    6.0063   -0.2296 C.3       1 <0>         0.0279
     21 C15         5.1838    5.2053   -1.5132 C.3       1 <0>        -0.1780
     22 C16         6.2851    4.2033   -1.0865 C.3       1 <0>        -0.1644
     23 C17         5.8502    3.8070    0.3462 C.3       1 <0>        -0.1653
     24 C18         5.3069    5.1173    0.9527 C.3       1 <0>        -0.1804
     25 H1         -3.8754    4.1658   -2.3945 H         1 <0>         0.1338
     26 H2         -2.4559    4.1231   -0.3880 H         1 <0>         0.1491
     27 H3          0.4254    6.5944   -2.3833 H         1 <0>         0.1466
     28 H4         -3.1598    5.4115   -4.3895 H         1 <0>         0.1307
     29 H5         -1.4799    6.7913   -5.4399 H         1 <0>         0.2202
     30 H6         -0.0691    7.2534   -4.6533 H         1 <0>         0.2223
     31 H7          2.6225    4.3015   -0.2192 H         1 <0>         0.1802
     32 H8          3.1238   10.8216    0.1442 H         1 <0>         0.1950
     33 H9         -1.0743    7.6278    0.2337 H         1 <0>         0.2378
     34 H10        -1.1812    9.3025    0.1531 H         1 <0>         0.2338
     35 H11         5.4568    6.9332   -0.2241 H         1 <0>         0.1369
     36 H12         4.2932    4.6735   -1.8483 H         1 <0>         0.0957
     37 H13         5.5524    5.8661   -2.2977 H         1 <0>         0.0966
     38 H14         7.2624    4.6857   -1.0740 H         1 <0>         0.0908
     39 H15         6.2910    3.3331   -1.7430 H         1 <0>         0.0903
     40 H16         6.7052    3.4474    0.9187 H         1 <0>         0.0901
     41 H17         5.0673    3.0494    0.3115 H         1 <0>         0.0862
     42 H18         6.0867    5.6123    1.5315 H         1 <0>         0.0979
     43 H19         4.4470    4.9069    1.5886 H         1 <0>         0.1026
@<TRIPOS>BOND
     1    1    6 ar
     2    1    2 ar
     3    1   25 1
     4    2    3 ar
     5    2   26 1
     6    3    4 ar
     7    3    8 1
     8    4    5 ar
     9    4   27 1
    10    5    6 ar
    11    5    7 1
    12    6   28 1
    13    7   29 1
    14    7   30 1
    15    8    9 2
    16    8   10 1
    17   10   14 1
    18   10   11 2
    19   11   12 1
    20   11   31 1
    21   12   13 1
    22   12   20 1
    23   13   18 ar
    24   13   14 ar
    25   14   15 ar
    26   15   16 ar
    27   15   19 1
    28   16   17 ar
    29   17   18 ar
    30   17   32 1
    31   19   33 1
    32   19   34 1
    33   20   24 1
    34   20   21 1
    35   20   35 1
    36   21   22 1
    37   21   36 1
    38   21   37 1
    39   22   23 1
    40   22   38 1
    41   22   39 1
    42   23   24 1
    43   23   40 1
    44   23   41 1
    45   24   42 1
    46   24   43 1
@<TRIPOS>MOLECULE
ZINC03963079
   41    42     0     0     0
SMALL
USER_CHARGES

@<TRIPOS>ATOM
      1 C1          4.3453   -5.5037    2.6889 C.3       1 <0>        -0.2127
      2 C2          4.6562   -5.9131    1.2478 C.3       1 <0>        -0.1773
      3 C3          5.4446   -4.7972    0.5594 C.3       1 <0>         0.0373
      4 H1          6.3331   -4.5647    1.1464 H         1 <0>         0.1230
      5 C4          5.8629   -5.2562   -0.8389 C.3       1 <0>        -0.2286
      6 N1          4.6049   -3.6017    0.4501 N.am      1 <0>        -0.3785
      7 C5          5.1749   -2.3836    0.3616 C.2       1 <0>         0.3843
      8 O1          6.3864   -2.2769    0.3725 O.2       1 <0>        -0.3516
      9 C6          4.3314   -1.1829    0.2518 C.2       1 <0>        -0.2946
     10 C7          4.7161    0.1460    0.1511 C.2       1 <0>        -0.1161
     11 C8          3.7474    1.1043    0.0524 C.2       1 <0>        -0.1099
     12 C9          2.4170    0.7114    0.0680 C.2       1 <0>        -0.3046
     13 S1          2.5506   -1.0629    0.2130 S.3       1 <0>         0.3333
     14 C10         1.2065    1.5431   -0.0192 C.2       1 <0>         0.3867
     15 O2          1.3046    2.7518   -0.1153 O.2       1 <0>        -0.3381
     16 N2         -0.0111    0.9658    0.0074 N.am      1 <0>        -0.3150
     17 C11        -1.1634    1.7617    0.0132 C.ar      1 <0>        -0.0216
     18 C12        -1.1853    2.9590   -0.6866 C.ar      1 <0>        -0.0789
     19 C13        -2.3254    3.7406   -0.6833 C.ar      1 <0>        -0.1691
     20 C14        -3.4428    3.3380    0.0249 C.ar      1 <0>        -0.0921
     21 C15        -3.4283    2.1490    0.7295 C.ar      1 <0>        -0.1960
     22 C16        -2.2905    1.3556    0.7276 C.ar      1 <0>         0.0995
     23 N3         -2.2733    0.1519    1.4404 N.pl3     1 <0>        -0.4262
     24 H2          5.2776   -5.3322    3.2270 H         1 <0>         0.0815
     25 H3          3.7533   -4.5884    2.6869 H         1 <0>         0.0736
     26 H4          3.7836   -6.2987    3.1793 H         1 <0>         0.0754
     27 H5          3.7239   -6.0845    0.7097 H         1 <0>         0.0813
     28 H6          5.2481   -6.8283    1.2498 H         1 <0>         0.0970
     29 H7          6.4247   -4.4612   -1.3294 H         1 <0>         0.0961
     30 H8          6.4877   -6.1456   -0.7576 H         1 <0>         0.0822
     31 H9          4.9744   -5.4887   -1.4260 H         1 <0>         0.0734
     32 H10         3.6387   -3.6869    0.4414 H         1 <0>         0.2232
     33 H11         5.7614    0.4175    0.1464 H         1 <0>         0.1713
     34 H12         4.0121    2.1479   -0.0326 H         1 <0>         0.1708
     35 H13        -0.0893   -0.0009    0.0184 H         1 <0>         0.2268
     36 H14        -0.3131    3.2785   -1.2375 H         1 <0>         0.1644
     37 H15        -2.3419    4.6708   -1.2319 H         1 <0>         0.1337
     38 H16        -4.3294    3.9547    0.0278 H         1 <0>         0.1291
     39 H17        -4.3027    1.8378    1.2818 H         1 <0>         0.1311
     40 H18        -1.4767   -0.4016    1.4383 H         1 <0>         0.2123
     41 H19        -3.0579   -0.1291    1.9367 H         1 <0>         0.2231
@<TRIPOS>BOND
     1    1    2 1
     2    1   24 1
     3    1   25 1
     4    1   26 1
     5    2    3 1
     6    2   27 1
     7    2   28 1
     8    3    4 1
     9    3    5 1
    10    3    6 1
    11    5   29 1
    12    5   30 1
    13    5   31 1
    14    6    7 am
    15    6   32 1
    16    7    8 2
    17    7    9 1
    18    9   13 1
    19    9   10 2
    20   10   11 1
    21   10   33 1
    22   11   12 2
    23   11   34 1
    24   12   13 1
    25   12   14 1
    26   14   15 2
    27   14   16 am
    28   16   17 1
    29   16   35 1
    30   17   22 ar
    31   17   18 ar
    32   18   19 ar
    33   18   36 1
    34   19   20 ar
    35   19   37 1
    36   20   21 ar
    37   20   38 1
    38   21   22 ar
    39   21   39 1
    40   22   23 1
    41   23   40 1
    42   23   41 1
@<TRIPOS>MOLECULE
ZINC03967863
   40    41     0     0     0
SMALL
USER_CHARGES

@<TRIPOS>ATOM
      1 C1          0.3895   -0.3877    0.2201 C.3       1 <0>        -0.2160
      2 C2          0.2426    1.1109    0.1573 C.2       1 <0>        -0.0702
      3 N1         -0.9397    1.6470    0.1389 N.2       1 <0>         0.0143
      4 N2         -2.0789    0.8324    0.1773 N.am      1 <0>        -0.3289
      5 C3         -3.3063    1.3890    0.1582 C.2       1 <0>         0.3631
      6 O1         -3.4248    2.5982    0.1076 O.2       1 <0>        -0.3200
      7 C4         -4.5080    0.5297    0.1988 C.ar      1 <0>        -0.1271
      8 C5         -4.3755   -0.8590    0.2511 C.ar      1 <0>        -0.1077
      9 C6         -5.5013   -1.6550    0.2941 C.ar      1 <0>        -0.1361
     10 C7         -6.7599   -1.0804    0.2743 C.ar      1 <0>        -0.1025
     11 C8         -6.8983    0.2951    0.2167 C.ar      1 <0>        -0.1366
     12 C9         -5.7808    1.1030    0.1791 C.ar      1 <0>        -0.0623
     13 C10         1.4409    1.9675    0.1107 C.ar      1 <0>        -0.0273
     14 C11         2.7146    1.3920    0.1304 C.ar      1 <0>        -0.1142
     15 C12         3.8323    2.1956    0.0809 C.ar      1 <0>        -0.1425
     16 C13         3.6947    3.5785    0.0230 C.ar      1 <0>         0.0396
     17 C14         2.4289    4.1549    0.0090 C.ar      1 <0>        -0.1113
     18 C15         1.3067    3.3576    0.0525 C.ar      1 <0>        -0.0838
     19 N3          4.8288    4.3891   -0.0216 N.pl3     1 <0>        -0.8266
     20 S1          5.3009    5.2274    1.3263 S.o2      1 <0>         2.6793
     21 O2          6.4644    5.9366    0.9232 O.2       1 <0>        -0.9074
     22 O3          4.1362    5.9252    1.7457 O.2       1 <0>        -0.8989
     23 C16         5.7359    3.9516    2.5402 C.3       1 <0>        -0.8257
     24 H1          0.4335   -0.7051    1.2619 H         1 <0>         0.0982
     25 H2         -0.4651   -0.8572   -0.2671 H         1 <0>         0.0803
     26 H3          1.3063   -0.6845   -0.2892 H         1 <0>         0.0984
     27 H4         -1.9844   -0.1321    0.2177 H         1 <0>         0.2138
     28 H5         -3.3937   -1.3090    0.2621 H         1 <0>         0.1207
     29 H6         -5.4002   -2.7293    0.3391 H         1 <0>         0.1333
     30 H7         -7.6381   -1.7083    0.3043 H         1 <0>         0.1337
     31 H8         -7.8836    0.7373    0.2016 H         1 <0>         0.1385
     32 H9         -5.8902    2.1765    0.1342 H         1 <0>         0.1597
     33 H10         2.8223    0.3186    0.1802 H         1 <0>         0.1351
     34 H11         4.8167    1.7515    0.0912 H         1 <0>         0.1349
     35 H12         2.3260    5.2291   -0.0363 H         1 <0>         0.1628
     36 H13         0.3241    3.8059    0.0412 H         1 <0>         0.1689
     37 H14         5.3410    4.4618   -0.8421 H         1 <0>         0.2555
     38 H15         6.6002    3.3910    2.1841 H         1 <0>         0.1341
     39 H16         5.9763    4.4235    3.4929 H         1 <0>         0.1424
     40 H17         4.8927    3.2738    2.6729 H         1 <0>         0.1388
@<TRIPOS>BOND
     1    1    2 1
     2    1   24 1
     3    1   25 1
     4    1   26 1
     5    2    3 2
     6    2   13 1
     7    3    4 1
     8    4    5 am
     9    4   27 1
    10    5    6 2
    11    5    7 1
    12    7   12 ar
    13    7    8 ar
    14    8    9 ar
    15    8   28 1
    16    9   10 ar
    17    9   29 1
    18   10   11 ar
    19   10   30 1
    20   11   12 ar
    21   11   31 1
    22   12   32 1
    23   13   18 ar
    24   13   14 ar
    25   14   15 ar
    26   14   33 1
    27   15   16 ar
    28   15   34 1
    29   16   17 ar
    30   16   19 1
    31   17   18 ar
    32   17   35 1
    33   18   36 1
    34   19   20 1
    35   19   37 1
    36   20   21 2
    37   20   22 2
    38   20   23 1
    39   23   38 1
    40   23   39 1
    41   23   40 1
@<TRIPOS>MOLECULE
ZINC03968685
   39    41     0     0     0
SMALL
USER_CHARGES

@<TRIPOS>ATOM
      1 C1          0.6516   11.7989   -0.4622 C.3       1 <0>        -0.1733
      2 C2          0.8090   10.3037   -0.3584 C.ar      1 <0>        -0.1038
      3 C3         -0.3133    9.4973   -0.2348 C.ar      1 <0>        -0.0726
      4 C4         -0.1899    8.1281   -0.1391 C.ar      1 <0>        -0.1467
      5 C5          1.0703    7.5396   -0.1653 C.ar      1 <0>         0.0962
      6 C6          2.2045    8.3581   -0.2901 C.ar      1 <0>        -0.1999
      7 C7          2.0667    9.7424   -0.3857 C.ar      1 <0>        -0.0397
      8 C8          3.5337    7.7175   -0.3163 C.2       1 <0>         0.3144
      9 O1          4.5564    8.3714   -0.4221 O.2       1 <0>        -0.2884
     10 C9          3.5634    6.2471   -0.2076 C.2       1 <0>        -0.2911
     11 C10         2.3813    5.5769   -0.0971 C.2       1 <0>         0.0404
     12 O2          1.2028    6.2018   -0.0715 O.3       1 <0>        -0.1193
     13 C11         4.8431    5.5173   -0.2243 C.2       1 <0>        -0.0701
     14 N1          4.8890    4.2974   -0.6666 N.2       1 <0>         0.0094
     15 N2          3.7777    3.7458   -1.3173 N.am      1 <0>        -0.3510
     16 C12         3.7809    2.4455   -1.6715 C.2       1 <0>         0.3595
     17 O3          4.7081    1.7290   -1.3464 O.2       1 <0>        -0.3103
     18 C13         2.6573    1.8901   -2.4552 C.ar      1 <0>        -0.1025
     19 C14         1.5435    2.6814   -2.7389 C.ar      1 <0>        -0.1491
     20 C15         0.4934    2.1573   -3.4743 C.ar      1 <0>         0.0801
     21 C16         0.5476    0.8475   -3.9284 C.ar      1 <0>        -0.1596
     22 C17         1.6528    0.0571   -3.6483 C.ar      1 <0>         0.0795
     23 C18         2.7076    0.5732   -2.9139 C.ar      1 <0>        -0.1001
     24 O4          1.7008   -1.2254   -4.0955 O.3       1 <0>        -0.2857
     25 O5         -0.5892    2.9290   -3.7563 O.3       1 <0>        -0.2878
     26 H1          0.6710   12.2364    0.5359 H         1 <0>         0.0911
     27 H2          1.4687   12.2100   -1.0551 H         1 <0>         0.0889
     28 H3         -0.2988   12.0317   -0.9426 H         1 <0>         0.0842
     29 H4         -1.2947    9.9476   -0.2137 H         1 <0>         0.1430
     30 H5         -1.0717    7.5119   -0.0440 H         1 <0>         0.1488
     31 H6          2.9402   10.3703   -0.4813 H         1 <0>         0.1616
     32 H7          2.3999    4.4997   -0.0219 H         1 <0>         0.2058
     33 H8          5.7429    5.9971    0.1314 H         1 <0>         0.2050
     34 H9          3.0059    4.2999   -1.5129 H         1 <0>         0.2176
     35 H10         1.5007    3.7013   -2.3861 H         1 <0>         0.1328
     36 H11        -0.2732    0.4418   -4.5013 H         1 <0>         0.1545
     37 H12         3.5680   -0.0425   -2.6969 H         1 <0>         0.1715
     38 H13         2.1001   -1.3220   -4.9710 H         1 <0>         0.2349
     39 H14        -1.2917    2.8782   -3.0938 H         1 <0>         0.2319
@<TRIPOS>BOND
     1    1    2 1
     2    1   26 1
     3    1   27 1
     4    1   28 1
     5    2    7 ar
     6    2    3 ar
     7    3    4 ar
     8    3   29 1
     9    4    5 ar
    10    4   30 1
    11    5   12 1
    12    5    6 ar
    13    6    7 ar
    14    6    8 1
    15    7   31 1
    16    8    9 2
    17    8   10 1
    18   10   11 2
    19   10   13 1
    20   11   12 1
    21   11   32 1
    22   13   14 2
    23   13   33 1
    24   14   15 1
    25   15   16 am
    26   15   34 1
    27   16   17 2
    28   16   18 1
    29   18   23 ar
    30   18   19 ar
    31   19   20 ar
    32   19   35 1
    33   20   21 ar
    34   20   25 1
    35   21   22 ar
    36   21   36 1
    37   22   23 ar
    38   22   24 1
    39   23   37 1
    40   24   38 1
    41   25   39 1
@<TRIPOS>MOLECULE
ZINC03968692
   37    38     0     0     0
SMALL
USER_CHARGES

@<TRIPOS>ATOM
      1 C1          5.1783    2.3989   -1.7771 C.3       1 <0>        -0.1644
      2 C2          4.1975    1.2582   -1.6873 C.2       1 <0>        -0.0808
      3 C3          4.6055   -0.0407   -1.8921 C.2       1 <0>        -0.1760
      4 C4          3.6947   -1.0440   -1.8101 C.2       1 <0>        -0.2923
      5 S1          2.1915   -0.1628   -1.4228 S.3       1 <0>         0.3443
      6 C5          2.8660    1.4900   -1.3930 C.2       1 <0>        -0.3037
      7 C6          2.1842    2.7633   -1.1309 C.2       1 <0>        -0.0481
      8 N1          0.9432    2.7684   -0.7448 N.2       1 <0>        -0.0032
      9 N2          0.3370    1.5792   -0.3191 N.pl3     1 <0>        -0.8064
     10 S2         -1.2851    1.5493    0.0127 S.o2      1 <0>         2.7779
     11 O1         -1.6226    0.1927    0.2676 O.2       1 <0>        -0.9103
     12 O2         -1.5259    2.5844    0.9560 O.2       1 <0>        -0.8951
     13 C7         -2.1277    2.0087   -1.4651 C.ar      1 <0>        -0.7749
     14 C8         -2.4161    3.3388   -1.7098 C.ar      1 <0>         0.0023
     15 C9         -3.0721    3.7026   -2.8694 C.ar      1 <0>        -0.1893
     16 C10        -3.4511    2.7300   -3.7854 C.ar      1 <0>         0.1197
     17 C11        -3.1646    1.3946   -3.5342 C.ar      1 <0>        -0.1535
     18 C12        -2.5041    1.0378   -2.3749 C.ar      1 <0>        -0.0104
     19 N3         -4.1198    3.0949   -4.9591 N.am      1 <0>        -0.3353
     20 C13        -5.0736    2.2907   -5.4690 C.2       1 <0>         0.3003
     21 O3         -5.4282    1.3061   -4.8560 O.2       1 <0>        -0.3434
     22 C14        -5.6995    2.6149   -6.8010 C.3       1 <0>        -0.2384
     23 H1          5.6194    2.5768   -0.7964 H         1 <0>         0.0923
     24 H2          5.9644    2.1469   -2.4889 H         1 <0>         0.0865
     25 H3          4.6604    3.2979   -2.1111 H         1 <0>         0.0816
     26 H4          5.6386   -0.2587   -2.1194 H         1 <0>         0.1483
     27 H5          3.8422   -2.1054   -1.9445 H         1 <0>         0.1916
     28 H6          2.7138    3.6958   -1.2589 H         1 <0>         0.1907
     29 H7          0.8668    0.7724   -0.2226 H         1 <0>         0.2350
     30 H8         -2.1247    4.0943   -0.9951 H         1 <0>         0.1576
     31 H9         -3.2935    4.7420   -3.0619 H         1 <0>         0.1357
     32 H10        -3.4577    0.6359   -4.2447 H         1 <0>         0.1615
     33 H11        -2.2810   -0.0006   -2.1790 H         1 <0>         0.1521
     34 H12        -3.8969    3.9266   -5.4057 H         1 <0>         0.2350
     35 H13        -5.1280    2.1373   -7.5969 H         1 <0>         0.1083
     36 H14        -6.7255    2.2472   -6.8195 H         1 <0>         0.1205
     37 H15        -5.6978    3.6947   -6.9501 H         1 <0>         0.0842
@<TRIPOS>BOND
     1    1    2 1
     2    1   23 1
     3    1   24 1
     4    1   25 1
     5    2    6 2
     6    2    3 1
     7    3    4 2
     8    3   26 1
     9    4    5 1
    10    4   27 1
    11    5    6 1
    12    6    7 1
    13    7    8 2
    14    7   28 1
    15    8    9 1
    16    9   10 1
    17    9   29 1
    18   10   11 2
    19   10   12 2
    20   10   13 1
    21   13   18 ar
    22   13   14 ar
    23   14   15 ar
    24   14   30 1
    25   15   16 ar
    26   15   31 1
    27   16   17 ar
    28   16   19 1
    29   17   18 ar
    30   17   32 1
    31   18   33 1
    32   19   20 am
    33   19   34 1
    34   20   21 2
    35   20   22 1
    36   22   35 1
    37   22   36 1
    38   22   37 1
@<TRIPOS>MOLECULE
ZINC03968693
   37    38     0     0     0
SMALL
USER_CHARGES

@<TRIPOS>ATOM
      1 C1         -9.6565    2.2375    5.6154 C.3       1 <0>        -0.1354
      2 C2         -8.4016    3.0498    5.4246 C.2       1 <0>        -0.2385
      3 C3         -7.7355    3.8130    6.3285 C.2       1 <0>        -0.1864
      4 C4         -6.5960    4.4797    5.9381 C.2       1 <0>        -0.1281
      5 C5         -6.1715    4.3442    4.6286 C.2       1 <0>        -0.3025
      6 S1         -7.4177    3.2604    3.9502 S.3       1 <0>         0.3386
      7 C6         -5.0046    4.9409    3.9676 C.2       1 <0>        -0.0478
      8 N1         -4.8328    4.7866    2.6885 N.2       1 <0>        -0.0019
      9 N2         -5.6801    3.9368    1.9654 N.pl3     1 <0>        -0.8023
     10 S2         -5.3747    3.6269    0.3676 S.o2      1 <0>         2.7789
     11 O1         -5.2739    4.8883   -0.2788 O.2       1 <0>        -0.8935
     12 O2         -6.3072    2.6348   -0.0391 O.2       1 <0>        -0.9125
     13 C7         -3.7788    2.8855    0.2765 C.ar      1 <0>        -0.7737
     14 C8         -3.6512    1.5109    0.3562 C.ar      1 <0>        -0.0098
     15 C9         -2.4018    0.9266    0.2842 C.ar      1 <0>        -0.1908
     16 C10        -1.2730    1.7211    0.1321 C.ar      1 <0>         0.1196
     17 C11        -1.4041    3.1017    0.0587 C.ar      1 <0>        -0.1557
     18 C12        -2.6568    3.6794    0.1251 C.ar      1 <0>         0.0029
     19 N3         -0.0058    1.1323    0.0588 N.am      1 <0>        -0.3343
     20 C13         0.9527    1.6892   -0.7077 C.2       1 <0>         0.3003
     21 O3          0.6917    2.6470   -1.4044 O.2       1 <0>        -0.3423
     22 C14         2.3487    1.1217   -0.6991 C.3       1 <0>        -0.2412
     23 H1        -10.5265    2.8552    5.3927 H         1 <0>         0.0974
     24 H2         -9.6391    1.3789    4.9442 H         1 <0>         0.0925
     25 H3         -9.7116    1.8909    6.6474 H         1 <0>         0.0951
     26 H4         -8.0956    3.8959    7.3434 H         1 <0>         0.1472
     27 H5         -6.0474    5.0937    6.6369 H         1 <0>         0.1460
     28 H6         -4.2888    5.5081    4.5440 H         1 <0>         0.1909
     29 H7         -6.4456    3.5301    2.4007 H         1 <0>         0.2280
     30 H8         -4.5294    0.8935    0.4744 H         1 <0>         0.1490
     31 H9         -2.3028   -0.1471    0.3457 H         1 <0>         0.1342
     32 H10        -0.5278    3.7226   -0.0548 H         1 <0>         0.1653
     33 H11        -2.7599    4.7527    0.0632 H         1 <0>         0.1604
     34 H12         0.1815    0.3211    0.5565 H         1 <0>         0.2345
     35 H13         2.3205    0.0824   -1.0265 H         1 <0>         0.0969
     36 H14         2.9796    1.6986   -1.3753 H         1 <0>         0.1217
     37 H15         2.7558    1.1736    0.3107 H         1 <0>         0.0973
@<TRIPOS>BOND
     1    1    2 1
     2    1   23 1
     3    1   24 1
     4    1   25 1
     5    2    6 1
     6    2    3 2
     7    3    4 1
     8    3   26 1
     9    4    5 2
    10    4   27 1
    11    5    6 1
    12    5    7 1
    13    7    8 2
    14    7   28 1
    15    8    9 1
    16    9   10 1
    17    9   29 1
    18   10   11 2
    19   10   12 2
    20   10   13 1
    21   13   18 ar
    22   13   14 ar
    23   14   15 ar
    24   14   30 1
    25   15   16 ar
    26   15   31 1
    27   16   17 ar
    28   16   19 1
    29   17   18 ar
    30   17   32 1
    31   18   33 1
    32   19   20 am
    33   19   34 1
    34   20   21 2
    35   20   22 1
    36   22   35 1
    37   22   36 1
    38   22   37 1
@<TRIPOS>MOLECULE
ZINC03969042
   40    42     0     0     0
SMALL
USER_CHARGES

@<TRIPOS>ATOM
      1 C1          1.0166    1.1600   -3.4885 C.3       1 <0>        -0.0649
      2 O1         -0.1809    0.3813   -3.5273 O.3       1 <0>        -0.2010
      3 C2         -0.1083   -0.8875   -3.0432 C.ar      1 <0>         0.0574
      4 C3          1.0884   -1.3708   -2.5490 C.ar      1 <0>        -0.1871
      5 C4          1.1581   -2.6747   -2.0475 C.ar      1 <0>        -0.0924
      6 C5          0.0186   -3.4857   -2.0588 C.ar      1 <0>        -0.1181
      7 C6         -1.1697   -2.9970   -2.5586 C.ar      1 <0>        -0.1339
      8 C7         -1.2390   -1.7017   -3.0510 C.ar      1 <0>         0.0638
      9 O2         -2.4136   -1.2256   -3.5429 O.3       1 <0>        -0.2766
     10 C8          2.4275   -3.1933   -1.5144 C.2       1 <0>         0.0027
     11 N1          2.4604   -4.3569   -0.9233 N.2       1 <0>        -0.1369
     12 N2          1.3603   -4.9705   -0.6452 N.2       1 <0>        -0.1580
     13 C9          1.3943   -6.1685   -0.1008 C.2       1 <0>         0.0416
     14 N3          0.3393   -6.9141    0.3853 N.am      1 <0>        -0.2264
     15 C10         0.5063   -8.1149    0.9126 C.2       1 <0>         0.3084
     16 O3         -0.4236   -8.7666    1.3381 O.2       1 <0>        -0.2976
     17 C11         1.9367   -8.6279    0.9518 C.3       1 <0>        -0.2886
     18 S1          2.8158   -7.2148    0.1752 S.3       1 <0>         0.1379
     19 C12        -0.9554   -6.3788    0.3178 C.ar      1 <0>         0.0140
     20 C13        -1.3248   -5.3455    1.1683 C.ar      1 <0>        -0.0857
     21 C14        -2.5974   -4.8145    1.0968 C.ar      1 <0>        -0.1471
     22 C15        -3.5108   -5.3219    0.1842 C.ar      1 <0>         0.0860
     23 C16        -3.1441   -6.3585   -0.6617 C.ar      1 <0>        -0.1533
     24 C17        -1.8697   -6.8859   -0.5956 C.ar      1 <0>        -0.0915
     25 O4         -4.7656   -4.8027    0.1185 O.3       1 <0>        -0.2894
     26 H1          1.3522    1.2591   -2.4562 H         1 <0>         0.0684
     27 H2          1.7904    0.6661   -4.0763 H         1 <0>         0.0641
     28 H3          0.8207    2.1487   -3.9034 H         1 <0>         0.1097
     29 H4          1.9665   -0.7420   -2.5463 H         1 <0>         0.1366
     30 H5          0.0695   -4.4943   -1.6759 H         1 <0>         0.1881
     31 H6         -2.0489   -3.6242   -2.5672 H         1 <0>         0.1499
     32 H7         -2.5359   -1.3821   -4.4892 H         1 <0>         0.2257
     33 H8          3.3321   -2.6114   -1.6120 H         1 <0>         0.1698
     34 H9          2.2700   -8.7900    1.9769 H         1 <0>         0.1551
     35 H10         2.0477   -9.5336    0.3556 H         1 <0>         0.1536
     36 H11        -0.6153   -4.9537    1.8821 H         1 <0>         0.1459
     37 H12        -2.8833   -4.0072    1.7548 H         1 <0>         0.1490
     38 H13        -3.8555   -6.7529   -1.3722 H         1 <0>         0.1464
     39 H14        -1.5842   -7.6925   -1.2547 H         1 <0>         0.1424
     40 H15        -5.4030   -5.2395    0.6999 H         1 <0>         0.2319
@<TRIPOS>BOND
     1    1    2 1
     2    1   26 1
     3    1   27 1
     4    1   28 1
     5    2    3 1
     6    3    8 ar
     7    3    4 ar
     8    4    5 ar
     9    4   29 1
    10    5    6 ar
    11    5   10 1
    12    6    7 ar
    13    6   30 1
    14    7    8 ar
    15    7   31 1
    16    8    9 1
    17    9   32 1
    18   10   11 2
    19   10   33 1
    20   11   12 1
    21   12   13 2
    22   13   18 1
    23   13   14 1
    24   14   15 am
    25   14   19 1
    26   15   16 2
    27   15   17 1
    28   17   18 1
    29   17   34 1
    30   17   35 1
    31   19   24 ar
    32   19   20 ar
    33   20   21 ar
    34   20   36 1
    35   21   22 ar
    36   21   37 1
    37   22   23 ar
    38   22   25 1
    39   23   24 ar
    40   23   38 1
    41   24   39 1
    42   25   40 1
@<TRIPOS>MOLECULE
ZINC03969043
   40    42     0     0     0
SMALL
USER_CHARGES

@<TRIPOS>ATOM
      1 C1         -3.9732   -1.5729    3.0823 C.3       1 <0>        -0.0659
      2 O1         -3.9509   -0.7819    1.8924 O.3       1 <0>        -0.1994
      3 C2         -3.4261   -1.3578    0.7779 C.ar      1 <0>         0.0642
      4 C3         -2.9455   -2.6525    0.8304 C.ar      1 <0>        -0.1875
      5 C4         -2.4068   -3.2417   -0.3181 C.ar      1 <0>        -0.0374
      6 C5         -2.3577   -2.5171   -1.5135 C.ar      1 <0>        -0.1071
      7 C6         -2.8446   -1.2281   -1.5580 C.ar      1 <0>        -0.1320
      8 C7         -3.3736   -0.6426   -0.4167 C.ar      1 <0>         0.0602
      9 O2         -3.8471    0.6308   -0.4656 O.3       1 <0>        -0.2768
     10 C8         -1.8930   -4.6194   -0.2688 C.2       1 <0>        -0.0013
     11 N1         -1.3906   -5.1676   -1.3420 N.2       1 <0>        -0.1418
     12 N2         -0.9401   -6.3755   -1.2988 N.2       1 <0>        -0.1562
     13 C9         -0.4336   -6.9282   -2.3808 C.2       1 <0>         0.0494
     14 N3          0.0910   -8.1969   -2.5242 N.am      1 <0>        -0.2281
     15 C10         0.5728   -8.6365   -3.6742 C.2       1 <0>         0.3088
     16 O3          1.0325   -9.7521   -3.7956 O.2       1 <0>        -0.2984
     17 C11         0.5143   -7.6566   -4.8347 C.3       1 <0>        -0.2869
     18 S1         -0.2707   -6.2152   -4.0107 S.3       1 <0>         0.1297
     19 C12         0.1141   -9.0493   -1.4106 C.ar      1 <0>         0.0226
     20 C13         1.2149   -9.0569   -0.5646 C.ar      1 <0>        -0.0870
     21 C14         1.2342   -9.8915    0.5353 C.ar      1 <0>        -0.1504
     22 C15         0.1595  -10.7317    0.7877 C.ar      1 <0>         0.0855
     23 C16        -0.9380  -10.7291   -0.0608 C.ar      1 <0>        -0.1503
     24 C17        -0.9613   -9.8901   -1.1572 C.ar      1 <0>        -0.0866
     25 O4          0.1817  -11.5577    1.8674 O.3       1 <0>        -0.2920
     26 H1         -2.9549   -1.8549    3.3502 H         1 <0>         0.0660
     27 H2         -4.4158   -0.9957    3.8941 H         1 <0>         0.1114
     28 H3         -4.5657   -2.4714    2.9103 H         1 <0>         0.0698
     29 H4         -2.9860   -3.2079    1.7557 H         1 <0>         0.1417
     30 H5         -1.9428   -2.9689   -2.4024 H         1 <0>         0.1583
     31 H6         -2.8102   -0.6710   -2.4826 H         1 <0>         0.1482
     32 H7         -3.1845    1.3049   -0.2615 H         1 <0>         0.2273
     33 H8         -1.9314   -5.1773    0.6551 H         1 <0>         0.1256
     34 H9          1.5132   -7.4135   -5.1969 H         1 <0>         0.1538
     35 H10        -0.1133   -8.0365   -5.6409 H         1 <0>         0.1540
     36 H11         2.0536   -8.4063   -0.7637 H         1 <0>         0.1424
     37 H12         2.0882   -9.8937    1.1964 H         1 <0>         0.1459
     38 H13        -1.7745  -11.3831    0.1364 H         1 <0>         0.1461
     39 H14        -1.8160   -9.8876   -1.8174 H         1 <0>         0.1428
     40 H15         0.5656  -12.4272    1.6896 H         1 <0>         0.2316
@<TRIPOS>BOND
     1    1    2 1
     2    1   26 1
     3    1   27 1
     4    1   28 1
     5    2    3 1
     6    3    8 ar
     7    3    4 ar
     8    4    5 ar
     9    4   29 1
    10    5    6 ar
    11    5   10 1
    12    6    7 ar
    13    6   30 1
    14    7    8 ar
    15    7   31 1
    16    8    9 1
    17    9   32 1
    18   10   11 2
    19   10   33 1
    20   11   12 1
    21   12   13 2
    22   13   18 1
    23   13   14 1
    24   14   15 am
    25   14   19 1
    26   15   16 2
    27   15   17 1
    28   17   18 1
    29   17   34 1
    30   17   35 1
    31   19   24 ar
    32   19   20 ar
    33   20   21 ar
    34   20   36 1
    35   21   22 ar
    36   21   37 1
    37   22   23 ar
    38   22   25 1
    39   23   24 ar
    40   23   38 1
    41   24   39 1
    42   25   40 1
@<TRIPOS>MOLECULE
ZINC03969050
   43    45     0     0     0
SMALL
USER_CHARGES

@<TRIPOS>ATOM
      1 C1          2.3052   -0.3063   -0.0398 C.3       1 <0>        -0.0640
      2 O1          2.3645    1.1214   -0.0235 O.3       1 <0>        -0.2098
      3 C2          1.1818    1.7870    0.0004 C.ar      1 <0>         0.1233
      4 C3         -0.0126    1.0758    0.0080 C.ar      1 <0>        -0.2415
      5 C4         -1.2151    1.7482    0.0173 C.ar      1 <0>        -0.0277
      6 C5         -1.2286    3.1436    0.0302 C.ar      1 <0>        -0.1811
      7 C6         -0.0285    3.8564    0.0425 C.ar      1 <0>         0.0028
      8 C7          1.1701    3.1764    0.0176 C.ar      1 <0>        -0.1753
      9 C8         -0.0394    5.3601    0.1101 C.3       1 <0>        -0.1195
     10 C9         -1.2048    5.9290   -0.6930 C.3       1 <0>        -0.1009
     11 C10        -2.4955    5.2632   -0.2952 C.2       1 <0>        -0.2999
     12 C11        -3.6354    5.9856   -0.2183 C.2       1 <0>         0.0649
     13 N1         -3.6176    7.3223   -0.5012 N.pl3     1 <0>        -0.2699
     14 C12        -4.7960    8.0691   -0.4217 C.ar      1 <0>         0.1342
     15 C13        -5.9877    7.4529   -0.0606 C.ar      1 <0>        -0.2083
     16 C14        -7.1492    8.1951    0.0231 C.ar      1 <0>         0.0138
     17 C15        -7.1294    9.5479   -0.2636 C.ar      1 <0>        -0.8003
     18 C16        -5.9462   10.1632   -0.6293 C.ar      1 <0>         0.0124
     19 C17        -4.7798    9.4282   -0.7090 C.ar      1 <0>        -0.2082
     20 S1         -8.6151   10.4897   -0.1621 S.o2      1 <0>         2.7652
     21 O2         -9.4765    9.7947    0.7292 O.2       1 <0>        -0.9171
     22 O3         -8.2264   11.8397    0.0517 O.2       1 <0>        -0.9188
     23 N2         -9.3328   10.4344   -1.6535 N.pl3     1 <0>        -0.9315
     24 C18        -2.5113    3.8793   -0.0028 C.2       1 <0>         0.3367
     25 O4         -3.5623    3.3039    0.2182 O.2       1 <0>        -0.3303
     26 H1          1.7888   -0.6587    0.8531 H         1 <0>         0.0711
     27 H2          1.7649   -0.6374   -0.9266 H         1 <0>         0.0705
     28 H3          3.3169   -0.7117   -0.0582 H         1 <0>         0.1098
     29 H4          0.0021   -0.0041    0.0020 H         1 <0>         0.1389
     30 H5         -2.1440    1.1972    0.0187 H         1 <0>         0.1523
     31 H6          2.1010    3.7238    0.0118 H         1 <0>         0.1455
     32 H7         -0.1343    5.6718    1.1503 H         1 <0>         0.1026
     33 H8          0.8969    5.7442   -0.2948 H         1 <0>         0.0920
     34 H9         -1.0257    5.7608   -1.7550 H         1 <0>         0.0943
     35 H10        -1.2806    7.0004   -0.5070 H         1 <0>         0.0680
     36 H11        -4.5603    5.5062    0.0669 H         1 <0>         0.1821
     37 H12        -2.7870    7.7529   -0.7573 H         1 <0>         0.2469
     38 H13        -6.0047    6.3955    0.1588 H         1 <0>         0.1492
     39 H14        -8.0750    7.7177    0.3084 H         1 <0>         0.1584
     40 H15        -5.9342   11.2198   -0.8525 H         1 <0>         0.1566
     41 H16        -3.8559    9.9095   -0.9940 H         1 <0>         0.1392
     42 H17        -8.9142    9.9394   -2.3751 H         1 <0>         0.2296
     43 H18       -10.1718   10.8969   -1.8054 H         1 <0>         0.2438
@<TRIPOS>BOND
     1    1    2 1
     2    1   26 1
     3    1   27 1
     4    1   28 1
     5    2    3 1
     6    3    8 ar
     7    3    4 ar
     8    4    5 ar
     9    4   29 1
    10    5    6 ar
    11    5   30 1
    12    6   24 1
    13    6    7 ar
    14    7    8 ar
    15    7    9 1
    16    8   31 1
    17    9   10 1
    18    9   32 1
    19    9   33 1
    20   10   11 1
    21   10   34 1
    22   10   35 1
    23   11   12 2
    24   11   24 1
    25   12   13 1
    26   12   36 1
    27   13   14 1
    28   13   37 1
    29   14   19 ar
    30   14   15 ar
    31   15   16 ar
    32   15   38 1
    33   16   17 ar
    34   16   39 1
    35   17   18 ar
    36   17   20 1
    37   18   19 ar
    38   18   40 1
    39   19   41 1
    40   20   21 2
    41   20   22 2
    42   20   23 1
    43   23   42 1
    44   23   43 1
    45   24   25 2
@<TRIPOS>MOLECULE
ZINC03969357
   41    43     0     0     0
SMALL
USER_CHARGES

@<TRIPOS>ATOM
      1 C1         -0.9203   15.4377   -2.1009 C.3       1 <0>        -0.0656
      2 O1         -0.8936   14.0460   -1.7775 O.3       1 <0>        -0.1822
      3 C2         -1.9583   13.5511   -1.0911 C.ar      1 <0>        -0.0185
      4 C3         -3.0048   14.3885   -0.7371 C.ar      1 <0>        -0.1549
      5 C4         -4.0914   13.8922   -0.0382 C.ar      1 <0>        -0.2326
      6 C5         -4.1467   12.5582    0.3070 C.ar      1 <0>        -0.0101
      7 C6         -3.0962   11.7035   -0.0376 C.ar      1 <0>        -0.2110
      8 C7         -1.9969   12.2061   -0.7443 C.ar      1 <0>         0.2396
      9 C8         -3.1480   10.2786    0.3356 C.2       1 <0>        -0.0710
     10 N1         -2.1731    9.4864    0.0093 N.2       1 <0>         0.0418
     11 N2         -2.2223    8.1319    0.3641 N.am      1 <0>        -0.3427
     12 C9         -1.2100    7.3093    0.0252 C.2       1 <0>         0.3091
     13 O2         -0.2561    7.7417   -0.5871 O.2       1 <0>        -0.2696
     14 C10        -1.2629    5.8524    0.4069 C.3       1 <0>        -0.0315
     15 H1         -1.4017    5.7589    1.4839 H         1 <0>         0.1085
     16 C11        -2.4244    5.1674   -0.3260 C.3       1 <0>        -0.0459
     17 O3         -2.4371    3.7853    0.0479 O.3       1 <0>        -0.2121
     18 C12        -1.2410    3.1361    0.0299 C.ar      1 <0>         0.0144
     19 C13        -1.2193    1.7493    0.0173 C.ar      1 <0>        -0.1268
     20 C14        -0.0126    1.0758    0.0080 C.ar      1 <0>        -0.1400
     21 C15         1.1759    1.7821    0.0004 C.ar      1 <0>        -0.1341
     22 C16         1.1613    3.1640    0.0067 C.ar      1 <0>        -0.1213
     23 C17        -0.0464    3.8461    0.0203 C.ar      1 <0>         0.0301
     24 O4         -0.0451    5.2072    0.0190 O.3       1 <0>        -0.1642
     25 N3         -5.2028   14.7961    0.3343 N.pl3     1 <0>         0.5709
     26 O5         -5.1597   15.9735    0.0258 O.2       1 <0>        -0.4236
     27 O6         -6.1605   14.3623    0.9494 O.3       1 <0>        -0.4289
     28 H2         -0.0144   15.7013   -2.6467 H         1 <0>         0.0860
     29 H3         -1.7922   15.6502   -2.7196 H         1 <0>         0.0566
     30 H4         -0.9748   16.0230   -1.1830 H         1 <0>         0.0568
     31 H5         -2.9718   15.4336   -1.0077 H         1 <0>         0.1358
     32 H6         -4.9992   12.1752    0.8481 H         1 <0>         0.1269
     33 H7         -3.9972    9.8937    0.8807 H         1 <0>         0.0856
     34 H8         -2.9851    7.7862    0.8536 H         1 <0>         0.1773
     35 H9         -2.2826    5.2555   -1.4031 H         1 <0>         0.1101
     36 H10        -3.3669    5.6343   -0.0399 H         1 <0>         0.1215
     37 H11        -2.1463    1.1952    0.0194 H         1 <0>         0.1384
     38 H12         0.0021   -0.0041    0.0020 H         1 <0>         0.1266
     39 H13         2.1174    1.2531   -0.0101 H         1 <0>         0.1287
     40 H14         2.0911    3.7134    0.0014 H         1 <0>         0.1493
     41 O7         -0.9727   11.3823   -1.0898 O.3       1 <0>        -0.4273
@<TRIPOS>BOND
     1    1    2 1
     2    1   28 1
     3    1   29 1
     4    1   30 1
     5    2    3 1
     6    3    8 ar
     7    3    4 ar
     8    4    5 ar
     9    4   31 1
    10    5    6 ar
    11    5   25 1
    12    6    7 ar
    13    6   32 1
    14    7    8 ar
    15    7    9 1
    16    8   41 1
    17    9   10 2
    18    9   33 1
    19   10   11 1
    20   11   12 am
    21   11   34 1
    22   12   13 2
    23   12   14 1
    24   14   15 1
    25   14   24 1
    26   14   16 1
    27   16   17 1
    28   16   35 1
    29   16   36 1
    30   17   18 1
    31   18   23 ar
    32   18   19 ar
    33   19   20 ar
    34   19   37 1
    35   20   21 ar
    36   20   38 1
    37   21   22 ar
    38   21   39 1
    39   22   23 ar
    40   22   40 1
    41   23   24 1
    42   25   26 2
    43   25   27 1
@<TRIPOS>MOLECULE
ZINC03969358
   41    43     0     0     0
SMALL
USER_CHARGES

@<TRIPOS>ATOM
      1 C1         -0.1257    9.9088    0.0564 C.3       1 <0>        -0.0656
      2 O1         -0.1930    8.4814    0.0494 O.3       1 <0>        -0.1823
      3 C2          0.9884    7.8077    0.0345 C.ar      1 <0>        -0.0185
      4 C3          2.1851    8.5072    0.0263 C.ar      1 <0>        -0.1548
      5 C4          3.3912    7.8285    0.0107 C.ar      1 <0>        -0.2326
      6 C5          3.4142    6.4497    0.0099 C.ar      1 <0>        -0.0102
      7 C6          2.2156    5.7312    0.0117 C.ar      1 <0>        -0.2111
      8 C7          0.9956    6.4182    0.0270 C.ar      1 <0>         0.2396
      9 C8          2.2356    4.2575    0.0036 C.2       1 <0>        -0.0710
     10 N1          1.1205    3.5933    0.0107 N.2       1 <0>         0.0418
     11 N2          1.1395    2.1925    0.0030 N.am      1 <0>        -0.3426
     12 C9         -0.0184    1.5028    0.0103 C.2       1 <0>         0.3091
     13 O2         -1.0771    2.0950    0.0185 O.2       1 <0>        -0.2697
     14 C10         0.0021   -0.0041    0.0020 C.3       1 <0>        -0.0317
     15 H1          0.6120   -0.3679    0.8289 H         1 <0>         0.1080
     16 C11         0.5794   -0.5065   -1.3282 C.3       1 <0>        -0.0455
     17 O3          0.5718   -1.9382   -1.3075 O.3       1 <0>        -0.2121
     18 C12        -0.5720   -2.5374   -0.8770 C.ar      1 <0>         0.0146
     19 C13        -0.7862   -3.8782   -1.1604 C.ar      1 <0>        -0.1269
     20 C14        -1.9398   -4.5021   -0.7247 C.ar      1 <0>        -0.1399
     21 C15        -2.8831   -3.7921   -0.0053 C.ar      1 <0>        -0.1343
     22 C16        -2.6763   -2.4557    0.2794 C.ar      1 <0>        -0.1213
     23 C17        -1.5213   -1.8231   -0.1560 C.ar      1 <0>         0.0300
     24 O4         -1.3328   -0.5057    0.1296 O.3       1 <0>        -0.1643
     25 N3          4.6628    8.5863    0.0011 N.pl3     1 <0>         0.5709
     26 O5          4.6459    9.8042    0.0070 O.2       1 <0>        -0.4237
     27 O6          5.7258    7.9920   -0.0126 O.3       1 <0>        -0.4287
     28 H2          0.4131   10.2428    0.9430 H         1 <0>         0.0567
     29 H3          0.3961   10.2523   -0.8368 H         1 <0>         0.0567
     30 H4         -1.1351   10.3200    0.0682 H         1 <0>         0.0859
     31 H5          2.1763    9.5872    0.0318 H         1 <0>         0.1358
     32 H6          4.3582    5.9252    0.0026 H         1 <0>         0.1269
     33 H7          3.1781    3.7303   -0.0083 H         1 <0>         0.0856
     34 H8          1.9860    1.7190   -0.0077 H         1 <0>         0.1774
     35 H9         -0.0343   -0.1473   -2.1543 H         1 <0>         0.1104
     36 H10         1.6014   -0.1460   -1.4449 H         1 <0>         0.1216
     37 H11        -0.0507   -4.4352   -1.7218 H         1 <0>         0.1384
     38 H12        -2.1045   -5.5463   -0.9462 H         1 <0>         0.1266
     39 H13        -3.7831   -4.2828    0.3348 H         1 <0>         0.1287
     40 H14        -3.4146   -1.9035    0.8418 H         1 <0>         0.1492
     41 O7         -0.1758    5.7292    0.0350 O.3       1 <0>        -0.4273
@<TRIPOS>BOND
     1    1    2 1
     2    1   28 1
     3    1   29 1
     4    1   30 1
     5    2    3 1
     6    3    8 ar
     7    3    4 ar
     8    4    5 ar
     9    4   31 1
    10    5    6 ar
    11    5   25 1
    12    6    7 ar
    13    6   32 1
    14    7    8 ar
    15    7    9 1
    16    8   41 1
    17    9   10 2
    18    9   33 1
    19   10   11 1
    20   11   12 am
    21   11   34 1
    22   12   13 2
    23   12   14 1
    24   14   15 1
    25   14   24 1
    26   14   16 1
    27   16   17 1
    28   16   35 1
    29   16   36 1
    30   17   18 1
    31   18   23 ar
    32   18   19 ar
    33   19   20 ar
    34   19   37 1
    35   20   21 ar
    36   20   38 1
    37   21   22 ar
    38   21   39 1
    39   22   23 ar
    40   22   40 1
    41   23   24 1
    42   25   26 2
    43   25   27 1
@<TRIPOS>MOLECULE
ZINC03969360
   41    43     0     0     0
SMALL
USER_CHARGES

@<TRIPOS>ATOM
      1 C1         -7.6553   12.1153    1.4522 C.3       1 <0>        -0.0628
      2 O1         -7.6824   10.8069    2.0260 O.3       1 <0>        -0.1817
      3 C2         -6.5737   10.0370    1.8604 C.ar      1 <0>        -0.0091
      4 C3         -5.4854   10.5326    1.1670 C.ar      1 <0>        -0.1624
      5 C4         -4.3505    9.7364    0.9930 C.ar      1 <0>        -0.2328
      6 C5         -4.3167    8.4472    1.5308 C.ar      1 <0>        -0.0512
      7 C6         -5.4038    7.9620    2.2266 C.ar      1 <0>        -0.2644
      8 C7         -6.5327    8.7508    2.3942 C.ar      1 <0>         0.2447
      9 N1         -5.3664    6.5961    2.7957 N.pl3     1 <0>         0.5742
     10 O2         -4.3762    5.9022    2.6491 O.2       1 <0>        -0.4608
     11 O3         -6.3258    6.1660    3.4106 O.3       1 <0>        -0.3420
     12 C8         -3.1892   10.2574    0.2492 C.2       1 <0>        -0.0581
     13 N2         -2.2489    9.4495   -0.1349 N.2       1 <0>        -0.0581
     14 N3         -2.5114    8.0791   -0.2619 N.am      1 <0>        -0.3295
     15 C9         -1.5078    7.2238   -0.5407 C.2       1 <0>         0.3151
     16 O4         -0.3772    7.6405   -0.6817 O.2       1 <0>        -0.3177
     17 C10        -1.7901    5.7498   -0.6773 C.3       1 <0>        -0.0309
     18 H1         -2.2786    5.3833    0.2256 H         1 <0>         0.1407
     19 C11        -2.6970    5.5069   -1.8913 C.3       1 <0>        -0.0438
     20 O5         -2.9333    4.0989   -1.9994 O.3       1 <0>        -0.2016
     21 C12        -1.8482    3.2859   -1.8803 C.ar      1 <0>         0.0199
     22 C13        -1.9265    1.9759   -2.3290 C.ar      1 <0>        -0.1248
     23 C14        -0.8360    1.1358   -2.2068 C.ar      1 <0>        -0.1391
     24 C15         0.3390    1.6017   -1.6468 C.ar      1 <0>        -0.1363
     25 C16         0.4257    2.9076   -1.2033 C.ar      1 <0>        -0.1228
     26 C17        -0.6664    3.7548   -1.3192 C.ar      1 <0>         0.0309
     27 O6         -0.5638    5.0406   -0.8846 O.3       1 <0>        -0.1726
     28 H2         -8.5987   12.6215    1.6570 H         1 <0>         0.0895
     29 H3         -6.8348   12.6859    1.8873 H         1 <0>         0.0542
     30 H4         -7.5117   12.0365    0.3745 H         1 <0>         0.0530
     31 H5         -5.5140   11.5313    0.7568 H         1 <0>         0.1128
     32 H6         -3.4392    7.8310    1.4018 H         1 <0>         0.1475
     33 H7         -3.1209   11.3114    0.0239 H         1 <0>         0.1627
     34 H8         -3.4153    7.7460   -0.1492 H         1 <0>         0.2342
     35 H9         -2.2060    5.8677   -2.7951 H         1 <0>         0.0978
     36 H10        -3.6439    6.0291   -1.7539 H         1 <0>         0.1300
     37 H11        -2.8421    1.6106   -2.7703 H         1 <0>         0.1403
     38 H12        -0.9004    0.1150   -2.5534 H         1 <0>         0.1258
     39 H13         1.1906    0.9437   -1.5555 H         1 <0>         0.1265
     40 H14         1.3446    3.2689   -0.7656 H         1 <0>         0.1453
     41 O7         -7.6018    8.2673    3.0807 O.3       1 <0>        -0.4430
@<TRIPOS>BOND
     1    1    2 1
     2    1   28 1
     3    1   29 1
     4    1   30 1
     5    2    3 1
     6    3    8 ar
     7    3    4 ar
     8    4    5 ar
     9    4   31 1
    10    5    6 ar
    11    5   12 1
    12    6    7 ar
    13    6   32 1
    14    7    8 ar
    15    7    9 1
    16    8   41 1
    17    9   10 2
    18    9   11 1
    19   12   13 2
    20   12   33 1
    21   13   14 1
    22   14   15 am
    23   14   34 1
    24   15   16 2
    25   15   17 1
    26   17   18 1
    27   17   27 1
    28   17   19 1
    29   19   20 1
    30   19   35 1
    31   19   36 1
    32   20   21 1
    33   21   26 ar
    34   21   22 ar
    35   22   23 ar
    36   22   37 1
    37   23   24 ar
    38   23   38 1
    39   24   25 ar
    40   24   39 1
    41   25   26 ar
    42   25   40 1
    43   26   27 1
@<TRIPOS>MOLECULE
ZINC03969361
   41    43     0     0     0
SMALL
USER_CHARGES

@<TRIPOS>ATOM
      1 C1         -6.2031   14.1569    1.0211 C.3       1 <0>        -0.0616
      2 O1         -5.1095   14.7282    0.3003 O.3       1 <0>        -0.1825
      3 C2         -4.0910   13.8936   -0.0399 C.ar      1 <0>        -0.0227
      4 C3         -4.1474   12.5569    0.3077 C.ar      1 <0>        -0.1581
      5 C4         -3.0962   11.7038   -0.0377 C.ar      1 <0>        -0.2001
      6 C5         -1.9984   12.2036   -0.7429 C.ar      1 <0>         0.0198
      7 C6         -1.9521   13.5369   -1.0916 C.ar      1 <0>        -0.2700
      8 C7         -2.9935   14.3849   -0.7434 C.ar      1 <0>         0.2480
      9 N1         -0.7884   14.0647   -1.8386 N.pl3     1 <0>         0.5753
     10 O2          0.1268   13.3216   -2.1446 O.2       1 <0>        -0.4438
     11 O3         -0.7460   15.2422   -2.1473 O.3       1 <0>        -0.3548
     12 C8         -3.1480   10.2785    0.3356 C.2       1 <0>        -0.0430
     13 N2         -2.1731    9.4864    0.0093 N.2       1 <0>        -0.0519
     14 N3         -2.2223    8.1319    0.3641 N.am      1 <0>        -0.3331
     15 C9         -1.2100    7.3093    0.0252 C.2       1 <0>         0.3121
     16 O4         -0.2561    7.7417   -0.5871 O.2       1 <0>        -0.2857
     17 C10        -1.2629    5.8524    0.4069 C.3       1 <0>        -0.0287
     18 H1         -1.4017    5.7589    1.4839 H         1 <0>         0.1103
     19 C11        -2.4244    5.1674   -0.3260 C.3       1 <0>        -0.0453
     20 O5         -2.4371    3.7853    0.0479 O.3       1 <0>        -0.2103
     21 C12        -1.2410    3.1361    0.0299 C.ar      1 <0>         0.0135
     22 C13        -1.2193    1.7493    0.0173 C.ar      1 <0>        -0.1255
     23 C14        -0.0126    1.0758    0.0080 C.ar      1 <0>        -0.1377
     24 C15         1.1759    1.7821    0.0004 C.ar      1 <0>        -0.1325
     25 C16         1.1613    3.1640    0.0067 C.ar      1 <0>        -0.1197
     26 C17        -0.0464    3.8461    0.0203 C.ar      1 <0>         0.0279
     27 O6         -0.0451    5.2072    0.0190 O.3       1 <0>        -0.1649
     28 H2         -6.9442   14.9287    1.2288 H         1 <0>         0.0868
     29 H3         -6.6588   13.3670    0.4240 H         1 <0>         0.0509
     30 H4         -5.8406   13.7391    1.9604 H         1 <0>         0.0511
     31 H5         -5.0000   12.1739    0.8488 H         1 <0>         0.1060
     32 H6         -1.1863   11.5457   -1.0152 H         1 <0>         0.1608
     33 H7         -3.9972    9.8936    0.8807 H         1 <0>         0.0906
     34 H8         -2.9851    7.7862    0.8536 H         1 <0>         0.1868
     35 H9         -2.2826    5.2555   -1.4031 H         1 <0>         0.1103
     36 H10        -3.3669    5.6343   -0.0399 H         1 <0>         0.1201
     37 H11        -2.1463    1.1952    0.0194 H         1 <0>         0.1395
     38 H12         0.0021   -0.0041    0.0020 H         1 <0>         0.1284
     39 H13         2.1174    1.2531   -0.0101 H         1 <0>         0.1306
     40 H14         2.0911    3.7134    0.0014 H         1 <0>         0.1501
     41 O7         -2.9426   15.6985   -1.0893 O.3       1 <0>        -0.4473
@<TRIPOS>BOND
     1    1    2 1
     2    1   28 1
     3    1   29 1
     4    1   30 1
     5    2    3 1
     6    3    8 ar
     7    3    4 ar
     8    4    5 ar
     9    4   31 1
    10    5    6 ar
    11    5   12 1
    12    6    7 ar
    13    6   32 1
    14    7    8 ar
    15    7    9 1
    16    8   41 1
    17    9   10 2
    18    9   11 1
    19   12   13 2
    20   12   33 1
    21   13   14 1
    22   14   15 am
    23   14   34 1
    24   15   16 2
    25   15   17 1
    26   17   18 1
    27   17   27 1
    28   17   19 1
    29   19   20 1
    30   19   35 1
    31   19   36 1
    32   20   21 1
    33   21   26 ar
    34   21   22 ar
    35   22   23 ar
    36   22   37 1
    37   23   24 ar
    38   23   38 1
    39   24   25 ar
    40   24   39 1
    41   25   26 ar
    42   25   40 1
    43   26   27 1
@<TRIPOS>MOLECULE
ZINC03969362
   41    43     0     0     0
SMALL
USER_CHARGES

@<TRIPOS>ATOM
      1 C1          6.9814    5.6528    0.6865 C.3       1 <0>        -0.0630
      2 O1          7.0812    4.2440    0.4690 O.3       1 <0>        -0.1814
      3 C2          5.9190    3.5658    0.2720 C.ar      1 <0>        -0.0065
      4 C3          4.7133    4.2416    0.2880 C.ar      1 <0>        -0.1633
      5 C4          3.5211    3.5415    0.0856 C.ar      1 <0>        -0.2268
      6 C5          3.5532    2.1608   -0.1262 C.ar      1 <0>        -0.0545
      7 C6          4.7603    1.4944   -0.1460 C.ar      1 <0>        -0.2665
      8 C7          5.9438    2.1899    0.0545 C.ar      1 <0>         0.2450
      9 N1          4.7929    0.0325   -0.3761 N.pl3     1 <0>         0.5745
     10 O2          3.7547   -0.5795   -0.5523 O.2       1 <0>        -0.4687
     11 O3          5.8579   -0.5583   -0.3893 O.3       1 <0>        -0.3355
     12 C8          2.2322    4.2569    0.1016 C.2       1 <0>        -0.0605
     13 N2          1.1213    3.5908    0.1825 N.2       1 <0>        -0.0548
     14 N3          1.1208    2.2897    0.7021 N.am      1 <0>        -0.3301
     15 C9         -0.0082    1.5542    0.6762 C.2       1 <0>         0.3149
     16 O4         -1.0228    2.0169    0.1985 O.2       1 <0>        -0.3173
     17 C10        -0.0087    0.1546    1.2351 C.3       1 <0>        -0.0335
     18 H1          0.3564    0.1689    2.2621 H         1 <0>         0.1117
     19 C11         0.8911   -0.7454    0.3775 C.3       1 <0>        -0.0501
     20 O5          0.8571   -2.0671    0.9274 O.3       1 <0>        -0.1885
     21 C12        -0.3684   -2.5639    1.2496 C.ar      1 <0>         0.0237
     22 C13        -0.5204   -3.9291    1.4421 C.ar      1 <0>        -0.1266
     23 C14        -1.7570   -4.4478    1.7758 C.ar      1 <0>        -0.1390
     24 C15        -2.8459   -3.6079    1.9187 C.ar      1 <0>        -0.1424
     25 C16        -2.7016   -2.2469    1.7270 C.ar      1 <0>        -0.1253
     26 C17        -1.4634   -1.7199    1.3908 C.ar      1 <0>         0.0221
     27 O6         -1.3373   -0.3778    1.2025 O.3       1 <0>        -0.1769
     28 H2          6.3780    5.8415    1.5744 H         1 <0>         0.0535
     29 H3          7.9782    6.0700    0.8292 H         1 <0>         0.0900
     30 H4          6.5117    6.1216   -0.1783 H         1 <0>         0.0544
     31 H5          4.6928    5.3081    0.4568 H         1 <0>         0.1138
     32 H6          2.6331    1.6162   -0.2784 H         1 <0>         0.1425
     33 H7          2.2125    5.3353    0.0459 H         1 <0>         0.1633
     34 H8          1.9331    1.9183    1.0804 H         1 <0>         0.2336
     35 H9          0.5221   -0.7640   -0.6479 H         1 <0>         0.1071
     36 H10         1.9130   -0.3666    0.3943 H         1 <0>         0.1683
     37 H11         0.3287   -4.5873    1.3316 H         1 <0>         0.1443
     38 H12        -1.8731   -5.5111    1.9256 H         1 <0>         0.1247
     39 H13        -3.8109   -4.0161    2.1805 H         1 <0>         0.1242
     40 H14        -3.5537   -1.5930    1.8395 H         1 <0>         0.1416
     41 O7          7.1306    1.5272    0.0391 O.3       1 <0>        -0.4422
@<TRIPOS>BOND
     1    1    2 1
     2    1   28 1
     3    1   29 1
     4    1   30 1
     5    2    3 1
     6    3    8 ar
     7    3    4 ar
     8    4    5 ar
     9    4   31 1
    10    5    6 ar
    11    5   12 1
    12    6    7 ar
    13    6   32 1
    14    7    8 ar
    15    7    9 1
    16    8   41 1
    17    9   10 2
    18    9   11 1
    19   12   13 2
    20   12   33 1
    21   13   14 1
    22   14   15 am
    23   14   34 1
    24   15   16 2
    25   15   17 1
    26   17   18 1
    27   17   27 1
    28   17   19 1
    29   19   20 1
    30   19   35 1
    31   19   36 1
    32   20   21 1
    33   21   26 ar
    34   21   22 ar
    35   22   23 ar
    36   22   37 1
    37   23   24 ar
    38   23   38 1
    39   24   25 ar
    40   24   39 1
    41   25   26 ar
    42   25   40 1
    43   26   27 1
@<TRIPOS>MOLECULE
ZINC03969363
   41    43     0     0     0
SMALL
USER_CHARGES

@<TRIPOS>ATOM
      1 C1          4.6304    5.5777   -0.0131 C.3       1 <0>        -0.0615
      2 O1          3.4184    6.3346    0.0030 O.3       1 <0>        -0.1825
      3 C2          2.2529    5.6338    0.0108 C.ar      1 <0>        -0.0226
      4 C3          2.2775    4.2518    0.0031 C.ar      1 <0>        -0.1583
      5 C4          1.0781    3.5350    0.0107 C.ar      1 <0>        -0.2001
      6 C5         -0.1403    4.2189    0.0203 C.ar      1 <0>         0.0197
      7 C6         -0.1567    5.5977    0.0337 C.ar      1 <0>        -0.2700
      8 C7          1.0344    6.3090    0.0262 C.ar      1 <0>         0.2480
      9 N1         -1.4483    6.3205    0.0495 N.pl3     1 <0>         0.5753
     10 O2         -2.4948    5.6975    0.0561 O.2       1 <0>        -0.4438
     11 O3         -1.4645    7.5384    0.0558 O.3       1 <0>        -0.3548
     12 C8          1.0981    2.0609    0.0026 C.2       1 <0>        -0.0431
     13 N2         -0.0169    1.3968    0.0097 N.2       1 <0>        -0.0519
     14 N3          0.0021   -0.0041    0.0020 N.am      1 <0>        -0.3331
     15 C9         -1.1558   -0.6938    0.0094 C.2       1 <0>         0.3121
     16 O4         -2.2145   -0.1016    0.0227 O.2       1 <0>        -0.2858
     17 C10        -1.1354   -2.2006    0.0011 C.3       1 <0>        -0.0288
     18 H1         -0.5254   -2.5644    0.8279 H         1 <0>         0.1099
     19 C11        -0.5581   -2.7030   -1.3292 C.3       1 <0>        -0.0449
     20 O5         -0.5657   -4.1347   -1.3084 O.3       1 <0>        -0.2104
     21 C12        -1.7094   -4.7340   -0.8779 C.ar      1 <0>         0.0136
     22 C13        -1.9237   -6.0747   -1.1613 C.ar      1 <0>        -0.1256
     23 C14        -3.0772   -6.6987   -0.7256 C.ar      1 <0>        -0.1376
     24 C15        -4.0205   -5.9887   -0.0062 C.ar      1 <0>        -0.1326
     25 C16        -3.8137   -4.6523    0.2785 C.ar      1 <0>        -0.1196
     26 C17        -2.6587   -4.0196   -0.1570 C.ar      1 <0>         0.0279
     27 O6         -2.4703   -2.7023    0.1286 O.3       1 <0>        -0.1650
     28 H2          4.6575    4.9542   -0.9068 H         1 <0>         0.0509
     29 H3          5.4829    6.2569   -0.0179 H         1 <0>         0.0868
     30 H4          4.6753    4.9446    0.8731 H         1 <0>         0.0511
     31 H5          3.2215    3.7272   -0.0091 H         1 <0>         0.1060
     32 H6         -1.0690    3.6677    0.0217 H         1 <0>         0.1608
     33 H7          2.0406    1.5337   -0.0092 H         1 <0>         0.0907
     34 H8          0.8486   -0.4776   -0.0086 H         1 <0>         0.1869
     35 H9         -1.1718   -2.3438   -2.1553 H         1 <0>         0.1106
     36 H10         0.4639   -2.3426   -1.4459 H         1 <0>         0.1203
     37 H11        -1.1882   -6.6317   -1.7227 H         1 <0>         0.1395
     38 H12        -3.2420   -7.7428   -0.9471 H         1 <0>         0.1284
     39 H13        -4.9205   -6.4793    0.3338 H         1 <0>         0.1306
     40 H14        -4.5521   -4.1000    0.8408 H         1 <0>         0.1500
     41 O7          1.0124    7.6681    0.0342 O.3       1 <0>        -0.4473
@<TRIPOS>BOND
     1    1    2 1
     2    1   28 1
     3    1   29 1
     4    1   30 1
     5    2    3 1
     6    3    8 ar
     7    3    4 ar
     8    4    5 ar
     9    4   31 1
    10    5    6 ar
    11    5   12 1
    12    6    7 ar
    13    6   32 1
    14    7    8 ar
    15    7    9 1
    16    8   41 1
    17    9   10 2
    18    9   11 1
    19   12   13 2
    20   12   33 1
    21   13   14 1
    22   14   15 am
    23   14   34 1
    24   15   16 2
    25   15   17 1
    26   17   18 1
    27   17   27 1
    28   17   19 1
    29   19   20 1
    30   19   35 1
    31   19   36 1
    32   20   21 1
    33   21   26 ar
    34   21   22 ar
    35   22   23 ar
    36   22   37 1
    37   23   24 ar
    38   23   38 1
    39   24   25 ar
    40   24   39 1
    41   25   26 ar
    42   25   40 1
    43   26   27 1
@<TRIPOS>MOLECULE
ZINC03969364
   42    44     0     0     0
SMALL
USER_CHARGES

@<TRIPOS>ATOM
      1 C1         -8.6859   10.8892    1.1433 C.3       1 <0>        -0.0616
      2 O1         -7.6334   10.8729    2.1097 O.3       1 <0>        -0.2163
      3 C2         -6.5710   10.0639    1.8521 C.ar      1 <0>         0.0940
      4 C3         -6.5745    8.7450    2.3020 C.ar      1 <0>         0.0691
      5 C4         -5.4926    7.9171    2.0420 C.ar      1 <0>        -0.1146
      6 C5         -4.4105    8.3934    1.3315 C.ar      1 <0>        -0.1434
      7 C6         -4.3978    9.7159    0.8820 C.ar      1 <0>        -0.0500
      8 C7         -5.4881   10.5500    1.1446 C.ar      1 <0>        -0.0854
      9 N1         -5.4826   11.9509    0.6664 N.pl3     1 <0>         0.5484
     10 O2         -6.0042   12.2333   -0.3974 O.2       1 <0>        -0.3450
     11 O3         -4.9564   12.8211    1.3367 O.3       1 <0>        -0.3188
     12 C8         -3.2399   10.2288    0.1273 C.2       1 <0>        -0.1271
     13 N2         -2.5098    9.4156   -0.5729 N.2       1 <0>         0.0538
     14 N3         -2.9338    8.0967   -0.7817 N.am      1 <0>        -0.3525
     15 C9         -2.1232    7.2190   -1.4054 C.2       1 <0>         0.3108
     16 O4         -0.9933    7.5438   -1.7046 O.2       1 <0>        -0.2665
     17 C10        -2.6204    5.8342   -1.7310 C.3       1 <0>        -0.0227
     18 H1         -2.9941    5.3550   -0.8261 H         1 <0>         0.1106
     19 C11        -3.7438    5.9194   -2.7732 C.3       1 <0>        -0.0423
     20 O5         -4.1823    4.5889   -3.0690 O.3       1 <0>        -0.2034
     21 C12        -3.2121    3.6619   -3.2969 C.ar      1 <0>         0.0098
     22 C13        -3.5408    2.4754   -3.9359 C.ar      1 <0>        -0.1197
     23 C14        -2.5685    1.5208   -4.1664 C.ar      1 <0>        -0.1271
     24 C15        -1.2639    1.7500   -3.7705 C.ar      1 <0>        -0.1255
     25 C16        -0.9284    2.9325   -3.1389 C.ar      1 <0>        -0.1148
     26 C17        -1.9003    3.8931   -2.9008 C.ar      1 <0>         0.0177
     27 O6         -1.5535    5.0559   -2.2842 O.3       1 <0>        -0.1687
     28 O7         -7.6408    8.2688    2.9978 O.3       1 <0>        -0.2636
     29 H2         -9.4688   11.5735    1.4702 H         1 <0>         0.1234
     30 H3         -8.2919   11.2203    0.1824 H         1 <0>         0.0842
     31 H4         -9.0999    9.8861    1.0400 H         1 <0>         0.0551
     32 H5         -5.4993    6.8957    2.3929 H         1 <0>         0.1599
     33 H6         -3.5712    7.7453    1.1266 H         1 <0>         0.1669
     34 H7         -2.9992   11.2812    0.1570 H         1 <0>         0.2062
     35 H8         -3.8109    7.8153   -0.4775 H         1 <0>         0.2226
     36 H9         -3.3685    6.3930   -3.6804 H         1 <0>         0.1129
     37 H10        -4.5747    6.4998   -2.3723 H         1 <0>         0.1154
     38 H11        -4.5585    2.2956   -4.2495 H         1 <0>         0.1453
     39 H12        -2.8274    0.5961   -4.6606 H         1 <0>         0.1374
     40 H13        -0.5056    1.0034   -3.9548 H         1 <0>         0.1386
     41 H14         0.0914    3.1087   -2.8300 H         1 <0>         0.1512
     42 H15        -8.3278    7.8742    2.4433 H         1 <0>         0.2353
@<TRIPOS>BOND
     1    1    2 1
     2    1   29 1
     3    1   30 1
     4    1   31 1
     5    2    3 1
     6    3    8 ar
     7    3    4 ar
     8    4    5 ar
     9    4   28 1
    10    5    6 ar
    11    5   32 1
    12    6    7 ar
    13    6   33 1
    14    7    8 ar
    15    7   12 1
    16    8    9 1
    17    9   10 2
    18    9   11 1
    19   12   13 2
    20   12   34 1
    21   13   14 1
    22   14   15 am
    23   14   35 1
    24   15   16 2
    25   15   17 1
    26   17   18 1
    27   17   27 1
    28   17   19 1
    29   19   20 1
    30   19   36 1
    31   19   37 1
    32   20   21 1
    33   21   26 ar
    34   21   22 ar
    35   22   23 ar
    36   22   38 1
    37   23   24 ar
    38   23   39 1
    39   24   25 ar
    40   24   40 1
    41   25   26 ar
    42   25   41 1
    43   26   27 1
    44   28   42 1
@<TRIPOS>MOLECULE
ZINC03969515
   38    41     0     0     0
SMALL
USER_CHARGES

@<TRIPOS>ATOM
      1 C1          1.4437    1.8489    0.2259 C.3       1 <0>        -0.0627
      2 O1          0.1557    1.2319    0.1799 O.3       1 <0>        -0.2095
      3 C2          0.1228   -0.1266    0.1566 C.ar      1 <0>         0.1051
      4 C3          1.3084   -0.8499    0.1778 C.ar      1 <0>        -0.2217
      5 C4          1.2818   -2.2322    0.1543 C.ar      1 <0>        -0.0715
      6 C5          0.0770   -2.9029    0.1093 C.ar      1 <0>        -0.1975
      7 C6         -1.1211   -2.1842    0.0877 C.ar      1 <0>         0.0361
      8 C7         -1.0921   -0.7883    0.1177 C.ar      1 <0>        -0.1371
      9 N1         -2.3176   -2.8452    0.0435 N.2       1 <0>        -0.1546
     10 C8         -2.4806   -3.8524   -0.7816 C.2       1 <0>        -0.0022
     11 N2         -3.5991   -4.6365   -0.9633 N.am      1 <0>        -0.3033
     12 C9         -3.5994   -5.6187   -1.8488 C.2       1 <0>         0.3448
     13 O2         -4.5782   -6.3173   -2.0265 O.2       1 <0>        -0.3231
     14 C10        -2.3410   -5.8302   -2.6112 C.2       1 <0>        -0.2395
     15 C11        -2.0507   -6.7708   -3.5828 C.2       1 <0>        -0.0086
     16 C12        -2.8807   -7.9210   -3.9974 C.ar      1 <0>        -0.1249
     17 C13        -4.1218   -8.3993   -3.5856 C.ar      1 <0>        -0.0516
     18 C14        -4.6513   -9.5272   -4.1787 C.ar      1 <0>        -0.1650
     19 C15        -3.9504  -10.1797   -5.1796 C.ar      1 <0>        -0.0767
     20 C16        -2.7191   -9.7138   -5.5952 C.ar      1 <0>        -0.1669
     21 C17        -2.1682   -8.5795   -5.0101 C.ar      1 <0>         0.0719
     22 N3         -0.9705   -7.9114   -5.2366 N.am      1 <0>        -0.3034
     23 C18        -0.8482   -6.8397   -4.4348 C.2       1 <0>         0.3445
     24 O3          0.0902   -6.0651   -4.4130 O.2       1 <0>        -0.3106
     25 S1         -1.3041   -4.5421   -1.9336 S.3       1 <0>         0.2906
     26 H1          1.9685    1.5278    1.1257 H         1 <0>         0.0689
     27 H2          2.0181    1.5571   -0.6534 H         1 <0>         0.0695
     28 H3          1.3272    2.9326    0.2405 H         1 <0>         0.1097
     29 H4          2.2547   -0.3307    0.2130 H         1 <0>         0.1370
     30 H5          2.2073   -2.7887    0.1709 H         1 <0>         0.1360
     31 H6          0.0599   -3.9826    0.0903 H         1 <0>         0.1455
     32 H7         -2.0147   -0.2269    0.1057 H         1 <0>         0.1579
     33 H8         -4.3963   -4.4636   -0.4384 H         1 <0>         0.2619
     34 H9         -4.6679   -7.8896   -2.8057 H         1 <0>         0.1878
     35 H10        -5.6136   -9.9016   -3.8623 H         1 <0>         0.1394
     36 H11        -4.3711  -11.0619   -5.6391 H         1 <0>         0.1355
     37 H12        -2.1829  -10.2315   -6.3769 H         1 <0>         0.1341
     38 H13        -0.3093   -8.1815   -5.8930 H         1 <0>         0.2540
@<TRIPOS>BOND
     1    1    2 1
     2    1   26 1
     3    1   27 1
     4    1   28 1
     5    2    3 1
     6    3    8 ar
     7    3    4 ar
     8    4    5 ar
     9    4   29 1
    10    5    6 ar
    11    5   30 1
    12    6    7 ar
    13    6   31 1
    14    7    8 ar
    15    7    9 1
    16    8   32 1
    17    9   10 2
    18   10   25 1
    19   10   11 1
    20   11   12 am
    21   11   33 1
    22   12   13 2
    23   12   14 1
    24   14   15 2
    25   14   25 1
    26   15   23 1
    27   15   16 1
    28   16   21 ar
    29   16   17 ar
    30   17   18 ar
    31   17   34 1
    32   18   19 ar
    33   18   35 1
    34   19   20 ar
    35   19   36 1
    36   20   21 ar
    37   20   37 1
    38   21   22 1
    39   22   23 am
    40   22   38 1
    41   23   24 2
@<TRIPOS>MOLECULE
ZINC03969562
   39    41     0     0     0
SMALL
USER_CHARGES

@<TRIPOS>ATOM
      1 C1          2.8068    7.9937    1.7662 C.3       1 <0>        -0.0604
      2 O1          2.2998    7.7647    0.4499 O.3       1 <0>        -0.2183
      3 C2          1.1366    7.0670    0.3489 C.ar      1 <0>         0.0691
      4 C3          0.5903    6.8103   -0.9007 C.ar      1 <0>        -0.1476
      5 C4         -0.5894    6.1036   -1.0083 C.ar      1 <0>        -0.1072
      6 C5         -1.2340    5.6457    0.1432 C.ar      1 <0>         0.0385
      7 C6         -0.6827    5.9108    1.3989 C.ar      1 <0>        -0.1071
      8 C7          0.4996    6.6146    1.4959 C.ar      1 <0>        -0.2083
      9 N1         -2.4048    4.9446    0.0416 N.2       1 <0>        -0.2793
     10 C8         -2.3847    3.6219    0.0285 C.2       1 <0>         0.2083
     11 N2         -3.5639    2.9044    0.0366 N.pl3     1 <0>        -0.2671
     12 H1         -4.4182    3.3635    0.0517 H         1 <0>         0.2598
     13 C9         -3.5129    1.5528    0.0227 C.2       1 <0>         0.2023
     14 N3         -2.3561    0.9417    0.0019 N.2       1 <0>        -0.3207
     15 C10        -1.2092    1.6373   -0.0060 C.2       1 <0>         0.2698
     16 N4         -1.2176    2.9597    0.0121 N.2       1 <0>        -0.3476
     17 N5         -0.0099    0.9670   -0.0275 N.pl3     1 <0>        -0.3521
     18 C11        -4.7886    0.7506    0.0317 C.3       1 <0>        -0.2475
     19 S1         -5.2772    0.4133    1.7416 S.3       1 <0>         0.3129
     20 C12        -6.7522   -0.5091    1.4621 C.ar      1 <0>        -0.0760
     21 N6         -7.1506   -0.7311    0.2174 N.ar      1 <0>        -0.2375
     22 C13        -8.2501   -1.4245   -0.0268 C.ar      1 <0>         0.0084
     23 C14        -8.9935   -1.9106    1.0374 C.ar      1 <0>        -0.2605
     24 C15        -8.5515   -1.6554    2.3262 C.ar      1 <0>         0.0091
     25 N7         -7.4403   -0.9599    2.5015 N.ar      1 <0>        -0.1867
     26 H2          2.0753    8.5586    2.3440 H         1 <0>         0.0658
     27 H3          2.9954    7.0375    2.2543 H         1 <0>         0.0646
     28 H4          3.7363    8.5596    1.7041 H         1 <0>         0.1017
     29 H5          1.0895    7.1647   -1.7905 H         1 <0>         0.1370
     30 H6         -1.0141    5.9049   -1.9812 H         1 <0>         0.1360
     31 H7         -1.1798    5.5627    2.2923 H         1 <0>         0.1317
     32 H8          0.9286    6.8169    2.4662 H         1 <0>         0.1287
     33 H9          0.0036   -0.0029   -0.0369 H         1 <0>         0.2399
     34 H10         0.8232    1.4637   -0.0374 H         1 <0>         0.2503
     35 H11        -5.5765    1.3154   -0.4666 H         1 <0>         0.1340
     36 H12        -4.6293   -0.1913   -0.4932 H         1 <0>         0.1617
     37 H13        -8.5672   -1.6059   -1.0431 H         1 <0>         0.1704
     38 H14        -9.8974   -2.4763    0.8661 H         1 <0>         0.1503
     39 H15        -9.1076   -2.0205    3.1770 H         1 <0>         0.1738
@<TRIPOS>BOND
     1    1    2 1
     2    1   26 1
     3    1   27 1
     4    1   28 1
     5    2    3 1
     6    3    8 ar
     7    3    4 ar
     8    4    5 ar
     9    4   29 1
    10    5    6 ar
    11    5   30 1
    12    6    7 ar
    13    6    9 1
    14    7    8 ar
    15    7   31 1
    16    8   32 1
    17    9   10 2
    18   10   16 1
    19   10   11 1
    20   11   12 1
    21   11   13 1
    22   13   14 2
    23   13   18 1
    24   14   15 1
    25   15   16 2
    26   15   17 1
    27   17   33 1
    28   17   34 1
    29   18   19 1
    30   18   35 1
    31   18   36 1
    32   19   20 1
    33   20   25 ar
    34   20   21 ar
    35   21   22 ar
    36   22   23 ar
    37   22   37 1
    38   23   24 ar
    39   23   38 1
    40   24   25 ar
    41   24   39 1
@<TRIPOS>MOLECULE
ZINC03969743
   45    48     0     0     0
SMALL
USER_CHARGES

@<TRIPOS>ATOM
      1 C1         -0.1611    3.5109    1.7262 C.3       1 <0>        -0.0640
      2 O1          1.1427    3.0304    1.3928 O.3       1 <0>        -0.2079
      3 C2          1.2143    1.8325    0.7531 C.ar      1 <0>         0.0622
      4 C3          0.0551    1.1351    0.4531 C.ar      1 <0>        -0.2096
      5 C4          0.1296   -0.0823   -0.1977 C.ar      1 <0>        -0.1014
      6 C5          1.3592   -0.6069   -0.5504 C.ar      1 <0>        -0.1180
      7 C6          2.5196    0.0837   -0.2542 C.ar      1 <0>        -0.0515
      8 C7          2.4519    1.3045    0.3979 C.ar      1 <0>         0.0448
      9 O2          3.5924    1.9850    0.6905 O.3       1 <0>        -0.2274
     10 C8          4.0164    1.9840    2.0552 C.3       1 <0>        -0.0651
     11 C9          3.8581   -0.4913   -0.6399 C.3       1 <0>         0.0937
     12 H1          3.7341   -1.5370   -0.9215 H         1 <0>         0.1324
     13 C10         4.4110    0.2751   -1.8112 C.2       1 <0>        -0.1986
     14 C11         5.4093    1.1916   -1.6339 C.2       1 <0>         0.1821
     15 C12         5.8905    1.8882   -2.7681 C.ar      1 <0>        -0.1177
     16 C13         6.9108    2.8432   -2.6584 C.ar      1 <0>        -0.0527
     17 C14         7.3470    3.4941   -3.7733 C.ar      1 <0>        -0.1664
     18 C15         6.7921    3.2225   -5.0214 C.ar      1 <0>        -0.0645
     19 C16         5.8004    2.3003   -5.1627 C.ar      1 <0>        -0.1834
     20 C17         5.3253    1.6095   -4.0353 C.ar      1 <0>         0.1007
     21 N1          4.3516    0.6975   -4.1442 N.am      1 <0>        -0.2038
     22 C18         3.8991    0.0477   -3.0926 C.2       1 <0>         0.3000
     23 O3          2.9105   -0.8657   -3.2559 O.2       1 <0>        -0.4385
     24 O4          5.9307    1.4380   -0.4135 O.3       1 <0>        -0.1289
     25 C19         5.7651    0.5465    0.5795 C.2       1 <0>         0.2788
     26 C20         4.7958   -0.3989    0.5312 C.2       1 <0>        -0.2664
     27 C21         4.6622   -1.3255    1.6148 C.1       1 <0>        -0.0627
     28 N2          4.5560   -2.0607    2.4743 N.1       1 <0>        -0.0768
     29 N3          6.5984    0.5956    1.6691 N.pl3     1 <0>        -0.3940
     30 H2         -0.7485    3.6295    0.8157 H         1 <0>         0.0688
     31 H3         -0.6538    2.7967    2.3860 H         1 <0>         0.0661
     32 H4         -0.0757    4.4730    2.2313 H         1 <0>         0.1051
     33 H5         -0.9064    1.5406    0.7316 H         1 <0>         0.1337
     34 H6         -0.7746   -0.6248   -0.4309 H         1 <0>         0.1322
     35 H7          1.4133   -1.5581   -1.0591 H         1 <0>         0.1528
     36 H8          3.2246    2.3942    2.6819 H         1 <0>         0.0743
     37 H9          4.2345    0.9626    2.3672 H         1 <0>         0.0617
     38 H10         4.9136    2.5945    2.1573 H         1 <0>         0.0919
     39 H11         7.3484    3.0622   -1.6957 H         1 <0>         0.1491
     40 H12         8.1327    4.2301   -3.6879 H         1 <0>         0.1384
     41 H13         7.1539    3.7516   -5.8907 H         1 <0>         0.1380
     42 H14         5.3807    2.1005   -6.1376 H         1 <0>         0.1424
     43 H15         3.9595    0.5056   -5.0439 H         1 <0>         0.2633
     44 H16         6.4893   -0.0415    2.3923 H         1 <0>         0.2590
     45 H17         7.2965    1.2676    1.7160 H         1 <0>         0.2277
@<TRIPOS>BOND
     1    1    2 1
     2    1   30 1
     3    1   31 1
     4    1   32 1
     5    2    3 1
     6    3    8 ar
     7    3    4 ar
     8    4    5 ar
     9    4   33 1
    10    5    6 ar
    11    5   34 1
    12    6    7 ar
    13    6   35 1
    14    7    8 ar
    15    7   11 1
    16    8    9 1
    17    9   10 1
    18   10   36 1
    19   10   37 1
    20   10   38 1
    21   11   12 1
    22   11   26 1
    23   11   13 1
    24   13   22 1
    25   13   14 2
    26   14   24 1
    27   14   15 1
    28   15   16 ar
    29   15   20 ar
    30   16   17 ar
    31   16   39 1
    32   17   18 ar
    33   17   40 1
    34   18   19 ar
    35   18   41 1
    36   19   20 ar
    37   19   42 1
    38   20   21 1
    39   21   43 1
    40   21   22 am
    41   22   23 2
    42   24   25 1
    43   25   26 2
    44   25   29 1
    45   26   27 1
    46   27   28 3
    47   29   44 1
    48   29   45 1
@<TRIPOS>MOLECULE
ZINC03969743
   45    48     0     0     0
SMALL
USER_CHARGES

@<TRIPOS>ATOM
      1 C1         -0.1686    3.5044    1.7185 C.3       1 <0>        -0.0657
      2 O1          1.1363    3.0258    1.3869 O.3       1 <0>        -0.2025
      3 C2          1.2106    1.8275    0.7482 C.ar      1 <0>         0.0756
      4 C3          0.0528    1.1280    0.4475 C.ar      1 <0>        -0.2074
      5 C4          0.1300   -0.0898   -0.2023 C.ar      1 <0>        -0.0860
      6 C5          1.3609   -0.6126   -0.5533 C.ar      1 <0>        -0.1605
      7 C6          2.5198    0.0801   -0.2564 C.ar      1 <0>        -0.0668
      8 C7          2.4494    1.3013    0.3947 C.ar      1 <0>         0.0605
      9 O2          3.5885    1.9839    0.6880 O.3       1 <0>        -0.2210
     10 C8          4.0110    1.9846    2.0531 C.3       1 <0>        -0.0660
     11 C9          3.8597   -0.4930   -0.6403 C.3       1 <0>         0.0747
     12 H1          3.7377   -1.5391   -0.9212 H         1 <0>         0.1019
     13 C10         4.4126    0.2735   -1.8115 C.ar      1 <0>        -0.2653
     14 C11         5.4091    1.1918   -1.6339 C.ar      1 <0>         0.1900
     15 C12         5.8903    1.8884   -2.7681 C.ar      1 <0>        -0.1294
     16 C13         6.9105    2.8435   -2.6583 C.ar      1 <0>        -0.0821
     17 C14         7.3451    3.4961   -3.7729 C.ar      1 <0>        -0.1481
     18 C15         6.7920    3.2226   -5.0214 C.ar      1 <0>        -0.0986
     19 C16         5.8019    2.2987   -5.1630 C.ar      1 <0>        -0.1147
     20 C17         5.3269    1.6078   -4.0356 C.ar      1 <0>         0.0929
     21 N1          4.3550    0.6940   -4.1449 N.ar      1 <0>        -0.2030
     22 C18         3.9025    0.0442   -3.0933 C.ar      1 <0>         0.2135
     23 O3          2.9159   -0.8713   -3.2571 O.3       1 <0>        -0.2319
     24 O4          5.9304    1.4383   -0.4134 O.3       1 <0>        -0.1271
     25 C19         5.7637    0.5489    0.5804 C.2       1 <0>         0.2959
     26 C20         4.7961   -0.3982    0.5318 C.2       1 <0>        -0.2809
     27 C21         4.6629   -1.3242    1.6159 C.1       1 <0>        -0.0654
     28 N2          4.5571   -2.0590    2.4758 N.1       1 <0>        -0.0763
     29 N3          6.5957    0.6003    1.6708 N.pl3     1 <0>        -0.3903
     30 H2         -0.7552    3.6214    0.8073 H         1 <0>         0.0714
     31 H3         -0.6609    2.7899    2.3783 H         1 <0>         0.0671
     32 H4         -0.0853    4.4670    2.2230 H         1 <0>         0.1100
     33 H5         -0.9096    1.5321    0.7246 H         1 <0>         0.1396
     34 H6         -0.7730   -0.6339   -0.4361 H         1 <0>         0.1357
     35 H7          1.4171   -1.5641   -1.0613 H         1 <0>         0.1285
     36 H8          3.2179    2.3940    2.6787 H         1 <0>         0.0749
     37 H9          4.2305    0.9638    2.3661 H         1 <0>         0.0630
     38 H10         4.9071    2.5967    2.1557 H         1 <0>         0.0972
     39 H11         7.3481    3.0625   -1.6956 H         1 <0>         0.1391
     40 H12         8.1294    4.2335   -3.6872 H         1 <0>         0.1322
     41 H13         7.1538    3.7517   -5.8907 H         1 <0>         0.1343
     42 H14         5.3836    2.0975   -6.1382 H         1 <0>         0.1545
     43 H15         2.6848   -1.2743   -2.3715 H         1 <0>         0.2467
     44 H16         6.4870   -0.0365    2.3944 H         1 <0>         0.2588
     45 H17         7.2926    1.2735    1.7180 H         1 <0>         0.2309
@<TRIPOS>BOND
     1    1    2 1
     2    1   30 1
     3    1   31 1
     4    1   32 1
     5    2    3 1
     6    3    8 ar
     7    3    4 ar
     8    4    5 ar
     9    4   33 1
    10    5    6 ar
    11    5   34 1
    12    6    7 ar
    13    6   35 1
    14    7    8 ar
    15    7   11 1
    16    8    9 1
    17    9   10 1
    18   10   36 1
    19   10   37 1
    20   10   38 1
    21   11   12 1
    22   11   26 1
    23   11   13 1
    24   13   22 ar
    25   13   14 ar
    26   14   24 1
    27   14   15 ar
    28   15   16 ar
    29   15   20 ar
    30   16   17 ar
    31   16   39 1
    32   17   18 ar
    33   17   40 1
    34   18   19 ar
    35   18   41 1
    36   19   20 ar
    37   19   42 1
    38   20   21 ar
    39   21   22 ar
    40   22   23 1
    41   23   43 1
    42   24   25 1
    43   25   26 2
    44   25   29 1
    45   26   27 1
    46   27   28 3
    47   29   44 1
    48   29   45 1
@<TRIPOS>MOLECULE
ZINC03969858
   43    45     0     0     0
SMALL
USER_CHARGES

@<TRIPOS>ATOM
      1 C1          2.6864   -9.9492   -0.5878 C.3       1 <0>        -0.1501
      2 C2          2.3236   -8.5423   -0.9878 C.2       1 <0>        -0.0562
      3 C3          2.3236   -8.0613   -2.2447 C.2       1 <0>        -0.2142
      4 C4          1.9073   -6.6585   -2.1561 C.2       1 <0>        -0.1871
      5 C5          1.6934   -6.4054   -0.8313 C.2       1 <0>        -0.0298
      6 N1          1.9407   -7.5474   -0.1341 N.pl3     1 <0>        -0.0715
      7 C6          1.8258   -7.6813    1.2562 C.ar      1 <0>         0.0291
      8 C7          0.5850   -7.5576    1.8668 C.ar      1 <0>        -0.1221
      9 C8          0.4743   -7.6943    3.2367 C.ar      1 <0>        -0.1209
     10 C9          1.5991   -7.9442    4.0011 C.ar      1 <0>        -0.1202
     11 C10         2.8370   -8.0631    3.3965 C.ar      1 <0>        -0.1206
     12 C11         2.9534   -7.9322    2.0265 C.ar      1 <0>        -0.1204
     13 C12         1.2554   -5.0889   -0.2431 C.3       1 <0>        -0.1517
     14 C13         1.7560   -5.7088   -3.2734 C.2       1 <0>        -0.0741
     15 N2          1.6207   -6.1503   -4.4866 N.2       1 <0>         0.0054
     16 N3          1.4175   -7.5173   -4.7160 N.am      1 <0>        -0.3419
     17 C14         1.3935   -7.9927   -5.9769 C.2       1 <0>         0.3082
     18 O1          1.5479   -7.2368   -6.9133 O.2       1 <0>        -0.3085
     19 C15         1.1748   -9.4632   -6.2237 C.3       1 <0>        -0.0834
     20 C16         1.1917   -9.7317   -7.7065 C.2       1 <0>        -0.2275
     21 N4          2.1979  -10.0377   -8.5000 N.2       1 <0>        -0.0321
     22 N5          2.0434  -10.2345   -9.7362 N.2       1 <0>        -0.1700
     23 C17         0.8533  -10.1448  -10.3150 C.2       1 <0>        -0.0317
     24 S1         -0.1500   -9.7262   -8.8921 S.3       1 <0>         0.1964
     25 N6          0.4903  -10.3232  -11.6417 N.pl3     1 <0>        -0.3530
     26 H1          3.7555  -10.0042   -0.3822 H         1 <0>         0.0902
     27 H2          2.1296  -10.2275    0.3069 H         1 <0>         0.0871
     28 H3          2.4367  -10.6333   -1.3987 H         1 <0>         0.0926
     29 H4          2.5798   -8.6030   -3.1431 H         1 <0>         0.1594
     30 H5         -0.2933   -7.3584    1.2707 H         1 <0>         0.1444
     31 H6         -0.4912   -7.6019    3.7118 H         1 <0>         0.1386
     32 H7          1.5106   -8.0470    5.0726 H         1 <0>         0.1363
     33 H8          3.7138   -8.2583    3.9962 H         1 <0>         0.1390
     34 H9          3.9205   -8.0252    1.5548 H         1 <0>         0.1460
     35 H10         0.1689   -5.0148   -0.2871 H         1 <0>         0.0910
     36 H11         1.5820   -5.0282    0.7951 H         1 <0>         0.0887
     37 H12         1.6987   -4.2715   -0.8118 H         1 <0>         0.0969
     38 H13         1.7577   -4.6458   -3.0826 H         1 <0>         0.1775
     39 H14         1.2940   -8.1216   -3.9674 H         1 <0>         0.2287
     40 H15         0.2108   -9.7614   -5.8115 H         1 <0>         0.1139
     41 H16         1.9684  -10.0344   -5.7420 H         1 <0>         0.1287
     42 H17         1.1632  -10.5510  -12.3022 H         1 <0>         0.2476
     43 H18        -0.4364  -10.2202  -11.9090 H         1 <0>         0.2412
@<TRIPOS>BOND
     1    1    2 1
     2    1   26 1
     3    1   27 1
     4    1   28 1
     5    2    6 1
     6    2    3 2
     7    3    4 1
     8    3   29 1
     9    4    5 2
    10    4   14 1
    11    5    6 1
    12    5   13 1
    13    6    7 1
    14    7   12 ar
    15    7    8 ar
    16    8    9 ar
    17    8   30 1
    18    9   10 ar
    19    9   31 1
    20   10   11 ar
    21   10   32 1
    22   11   12 ar
    23   11   33 1
    24   12   34 1
    25   13   35 1
    26   13   36 1
    27   13   37 1
    28   14   15 2
    29   14   38 1
    30   15   16 1
    31   16   17 am
    32   16   39 1
    33   17   18 2
    34   17   19 1
    35   19   20 1
    36   19   40 1
    37   19   41 1
    38   20   24 1
    39   20   21 2
    40   21   22 1
    41   22   23 2
    42   23   24 1
    43   23   25 1
    44   25   42 1
    45   25   43 1
@<TRIPOS>MOLECULE
ZINC03969945
   45    47     0     0     0
SMALL
USER_CHARGES

@<TRIPOS>ATOM
      1 C1         -2.4642   -3.9032    1.7221 C.3       1 <0>        -0.0637
      2 O1         -2.5072   -2.5052    1.4295 O.3       1 <0>        -0.2116
      3 C2         -1.3401   -1.9168    1.0542 C.ar      1 <0>         0.0903
      4 C3         -0.1785   -2.6734    0.9705 C.ar      1 <0>        -0.2003
      5 C4          1.0121   -2.0843    0.5897 C.ar      1 <0>        -0.1132
      6 C5          1.0547   -0.7332    0.2884 C.ar      1 <0>         0.0529
      7 C6         -0.1133    0.0365    0.3707 C.ar      1 <0>        -0.0782
      8 C7         -1.3118   -0.5650    0.7615 C.ar      1 <0>        -0.1720
      9 C8         -0.0762    1.4749    0.0523 C.2       1 <0>        -0.1133
     10 N1         -1.1434    2.0706   -0.3854 N.2       1 <0>         0.0303
     11 N2         -2.2652    1.3166   -0.7541 N.am      1 <0>        -0.3444
     12 C9         -3.4120    1.9373   -1.0948 C.2       1 <0>         0.3576
     13 O2         -3.4474    3.1504   -1.1708 O.2       1 <0>        -0.3090
     14 C10        -4.6266    1.1434   -1.3760 C.ar      1 <0>        -0.1024
     15 C11        -4.6169   -0.2409   -1.1923 C.ar      1 <0>        -0.1363
     16 C12        -5.7534   -0.9790   -1.4519 C.ar      1 <0>        -0.1102
     17 C13        -6.9013   -0.3541   -1.9028 C.ar      1 <0>        -0.1572
     18 C14        -6.9197    1.0222   -2.0935 C.ar      1 <0>         0.0779
     19 C15        -5.7846    1.7736   -1.8314 C.ar      1 <0>        -0.1006
     20 N3         -8.0842    1.6497   -2.5505 N.am      1 <0>        -0.2851
     21 C16        -9.3704    0.9696   -2.7431 C.3       1 <0>        -0.0239
     22 C17       -10.2028    1.9092   -3.6435 C.3       1 <0>        -0.1777
     23 C18        -9.5691    3.2854   -3.3341 C.3       1 <0>        -0.1976
     24 C19        -8.1698    2.9540   -2.8641 C.2       1 <0>         0.3099
     25 O3         -7.2572    3.7490   -2.7844 O.2       1 <0>        -0.3273
     26 O4          2.2264   -0.1553   -0.0855 O.3       1 <0>        -0.2839
     27 H1         -2.1315   -4.4492    0.8393 H         1 <0>         0.0691
     28 H2         -1.7692   -4.0814    2.5428 H         1 <0>         0.0709
     29 H3         -3.4589   -4.2455    2.0075 H         1 <0>         0.1120
     30 H4         -0.2059   -3.7275    1.2039 H         1 <0>         0.1408
     31 H5          1.9115   -2.6788    0.5271 H         1 <0>         0.1447
     32 H6         -2.2151    0.0229    0.8311 H         1 <0>         0.1671
     33 H7          0.8401    2.0325    0.1788 H         1 <0>         0.1895
     34 H8         -2.2165    0.3479   -0.7642 H         1 <0>         0.2315
     35 H9         -3.7211   -0.7332   -0.8438 H         1 <0>         0.1297
     36 H10        -5.7449   -2.0491   -1.3063 H         1 <0>         0.1335
     37 H11        -7.7866   -0.9377   -2.1079 H         1 <0>         0.1307
     38 H12        -5.7970    2.8434   -1.9790 H         1 <0>         0.2084
     39 H13        -9.2193    0.0099   -3.2372 H         1 <0>         0.0953
     40 H14        -9.8688    0.8268   -1.7843 H         1 <0>         0.0921
     41 H15       -10.0803    1.6511   -4.6954 H         1 <0>         0.1019
     42 H16       -11.2549    1.8909   -3.3593 H         1 <0>         0.1014
     43 H17        -9.5369    3.9013   -4.2328 H         1 <0>         0.1232
     44 H18       -10.1245    3.7924   -2.5451 H         1 <0>         0.1196
     45 H19         2.7803    0.1260    0.6556 H         1 <0>         0.2275
@<TRIPOS>BOND
     1    1    2 1
     2    1   27 1
     3    1   28 1
     4    1   29 1
     5    2    3 1
     6    3    8 ar
     7    3    4 ar
     8    4    5 ar
     9    4   30 1
    10    5    6 ar
    11    5   31 1
    12    6    7 ar
    13    6   26 1
    14    7    8 ar
    15    7    9 1
    16    8   32 1
    17    9   10 2
    18    9   33 1
    19   10   11 1
    20   11   12 am
    21   11   34 1
    22   12   13 2
    23   12   14 1
    24   14   19 ar
    25   14   15 ar
    26   15   16 ar
    27   15   35 1
    28   16   17 ar
    29   16   36 1
    30   17   18 ar
    31   17   37 1
    32   18   19 ar
    33   18   20 1
    34   19   38 1
    35   20   24 am
    36   20   21 1
    37   21   22 1
    38   21   39 1
    39   21   40 1
    40   22   23 1
    41   22   41 1
    42   22   42 1
    43   23   24 1
    44   23   43 1
    45   23   44 1
    46   24   25 2
    47   26   45 1
@<TRIPOS>MOLECULE
ZINC03969946
   45    47     0     0     0
SMALL
USER_CHARGES

@<TRIPOS>ATOM
      1 C1          5.7376    2.0784   -1.9763 C.3       1 <0>        -0.0637
      2 O1          4.5900    1.3030   -1.6243 O.3       1 <0>        -0.2089
      3 C2          3.4904    1.9836   -1.2038 C.ar      1 <0>         0.0930
      4 C3          3.5192    3.3703   -1.1327 C.ar      1 <0>        -0.1999
      5 C4          2.4066    4.0704   -0.7066 C.ar      1 <0>        -0.1129
      6 C5          1.2536    3.3926   -0.3470 C.ar      1 <0>         0.0519
      7 C6          1.2172    1.9936   -0.4162 C.ar      1 <0>        -0.0804
      8 C7          2.3476    1.2926   -0.8429 C.ar      1 <0>        -0.1723
      9 C8         -0.0056    1.2649   -0.0349 C.2       1 <0>        -0.1145
     10 N1          0.0767    0.0512    0.4185 N.2       1 <0>         0.0242
     11 N2          1.3265   -0.4918    0.7436 N.am      1 <0>        -0.3453
     12 C9          1.4260   -1.7877    1.1004 C.2       1 <0>         0.3632
     13 O2          0.4219   -2.4621    1.2283 O.2       1 <0>        -0.3277
     14 C10         2.7530   -2.3883    1.3356 C.ar      1 <0>        -0.1618
     15 C11         3.9007   -1.5918    1.2890 C.ar      1 <0>        -0.0775
     16 C12         5.1367   -2.1544    1.5147 C.ar      1 <0>        -0.1734
     17 C13         5.2454   -3.5163    1.7776 C.ar      1 <0>         0.1096
     18 C14         4.1056   -4.3132    1.8192 C.ar      1 <0>        -0.1909
     19 C15         2.8659   -3.7562    1.6001 C.ar      1 <0>        -0.0375
     20 N3          6.4995   -4.0839    2.0005 N.am      1 <0>        -0.2809
     21 C16         6.7399   -5.5221    2.1669 C.3       1 <0>        -0.0260
     22 C17         8.1405   -5.6344    2.8088 C.3       1 <0>        -0.1775
     23 C18         8.8061   -4.3179    2.3453 C.3       1 <0>        -0.1986
     24 C19         7.6443   -3.3846    2.0848 C.2       1 <0>         0.3141
     25 O3          7.7327   -2.1804    1.9712 O.2       1 <0>        -0.3411
     26 O4          0.1606    4.0825    0.0722 O.3       1 <0>        -0.2862
     27 H1          6.5415    1.4142   -2.2935 H         1 <0>         0.1144
     28 H2          5.4825    2.7554   -2.7917 H         1 <0>         0.0702
     29 H3          6.0640    2.6572   -1.1122 H         1 <0>         0.0693
     30 H4          4.4155    3.9041   -1.4122 H         1 <0>         0.1416
     31 H5          2.4364    5.1487   -0.6535 H         1 <0>         0.1445
     32 H6          2.3282    0.2140   -0.8944 H         1 <0>         0.1669
     33 H7         -0.9707    1.7390   -0.1369 H         1 <0>         0.1970
     34 H8          2.1203    0.0648    0.7120 H         1 <0>         0.2309
     35 H9          3.8174   -0.5354    1.0805 H         1 <0>         0.1322
     36 H10         6.0234   -1.5387    1.4832 H         1 <0>         0.1864
     37 H11         4.1935   -5.3700    2.0239 H         1 <0>         0.1354
     38 H12         1.9816   -4.3752    1.6328 H         1 <0>         0.1593
     39 H13         5.9874   -5.9566    2.8250 H         1 <0>         0.1001
     40 H14         6.7280   -6.0211    1.1979 H         1 <0>         0.0949
     41 H15         8.0694   -5.6739    3.8958 H         1 <0>         0.1032
     42 H16         8.6782   -6.5004    2.4229 H         1 <0>         0.1033
     43 H17         9.4506   -3.9198    3.1291 H         1 <0>         0.1230
     44 H18         9.3756   -4.4800    1.4301 H         1 <0>         0.1199
     45 H19         0.1702    4.2998    1.0144 H         1 <0>         0.2289
@<TRIPOS>BOND
     1    1    2 1
     2    1   27 1
     3    1   28 1
     4    1   29 1
     5    2    3 1
     6    3    8 ar
     7    3    4 ar
     8    4    5 ar
     9    4   30 1
    10    5    6 ar
    11    5   31 1
    12    6    7 ar
    13    6   26 1
    14    7    8 ar
    15    7    9 1
    16    8   32 1
    17    9   10 2
    18    9   33 1
    19   10   11 1
    20   11   12 am
    21   11   34 1
    22   12   13 2
    23   12   14 1
    24   14   19 ar
    25   14   15 ar
    26   15   16 ar
    27   15   35 1
    28   16   17 ar
    29   16   36 1
    30   17   18 ar
    31   17   20 1
    32   18   19 ar
    33   18   37 1
    34   19   38 1
    35   20   24 am
    36   20   21 1
    37   21   22 1
    38   21   39 1
    39   21   40 1
    40   22   23 1
    41   22   41 1
    42   22   42 1
    43   23   24 1
    44   23   43 1
    45   23   44 1
    46   24   25 2
    47   26   45 1
@<TRIPOS>MOLECULE
ZINC03970103
   45    47     0     0     0
SMALL
USER_CHARGES

@<TRIPOS>ATOM
      1 C1         -0.7901   -1.4137   -4.2137 C.3       1 <0>        -0.0647
      2 O1         -0.7527    0.0104   -4.3257 O.3       1 <0>        -0.1954
      3 C2          0.3827    0.6327   -3.9104 C.ar      1 <0>         0.0767
      4 C3          1.4368   -0.1141   -3.4066 C.ar      1 <0>        -0.1913
      5 C4          2.5912    0.5140   -2.9849 C.ar      1 <0>        -0.1097
      6 C5          2.6995    1.9007   -3.0647 C.ar      1 <0>        -0.0048
      7 C6          1.6407    2.6523   -3.5698 C.ar      1 <0>        -0.1661
      8 C7          0.4854    2.0188   -3.9919 C.ar      1 <0>         0.0672
      9 O2         -0.5472    2.7493   -4.4914 O.3       1 <0>        -0.1968
     10 C8         -0.3728    4.1666   -4.5456 C.3       1 <0>        -0.0650
     11 C9          3.9409    2.5766   -2.6112 C.2       1 <0>        -0.0701
     12 C10         5.1191    1.9444   -2.1738 C.2       1 <0>        -0.1452
     13 C11         5.9891    2.9716   -1.8599 C.2       1 <0>        -0.1673
     14 N1          5.3202    4.1362   -2.1131 N.pl3     1 <0>        -0.1118
     15 H1          5.6933    5.0541   -1.9778 H         1 <0>         0.2797
     16 N2          4.1411    3.8762   -2.5507 N.2       1 <0>        -0.0754
     17 C12         7.3639    2.8377   -1.3532 C.2       1 <0>         0.3851
     18 O3          7.8403    1.7330   -1.1712 O.2       1 <0>        -0.2986
     19 N3          8.0956    3.9387   -1.0907 N.am      1 <0>        -0.3488
     20 N4          9.4047    3.8112   -0.6082 N.2       1 <0>         0.0246
     21 C13        10.0716    4.8672   -0.2536 C.2       1 <0>        -0.1071
     22 C14         9.3816    6.1618   -0.1136 C.ar      1 <0>        -0.1261
     23 C15         8.0154    6.2020    0.1745 C.ar      1 <0>        -0.1406
     24 C16         7.3768    7.4169    0.3085 C.ar      1 <0>        -0.1380
     25 C17         8.0820    8.5976    0.1491 C.ar      1 <0>        -0.1017
     26 C18         9.4330    8.5712   -0.1414 C.ar      1 <0>        -0.1450
     27 C19        10.0913    7.3597   -0.2746 C.ar      1 <0>         0.0969
     28 O4         11.4189    7.3327   -0.5596 O.3       1 <0>        -0.2872
     29 H2         -1.7490   -1.7818   -4.5786 H         1 <0>         0.1095
     30 H3          0.0150   -1.8462   -4.8078 H         1 <0>         0.0665
     31 H4         -0.6649   -1.6995   -3.1693 H         1 <0>         0.0665
     32 H5          1.3545   -1.1891   -3.3445 H         1 <0>         0.1424
     33 H6          3.4111   -0.0698   -2.5932 H         1 <0>         0.1366
     34 H7          1.7221    3.7274   -3.6327 H         1 <0>         0.1548
     35 H8         -1.2682    4.6271   -4.9632 H         1 <0>         0.1081
     36 H9         -0.2022    4.5504   -3.5398 H         1 <0>         0.0676
     37 H10         0.4849    4.4033   -5.1752 H         1 <0>         0.0676
     38 H11         5.3044    0.8830   -2.0994 H         1 <0>         0.1818
     39 H12         7.7158    4.8194   -1.2358 H         1 <0>         0.2167
     40 H13        11.1320    4.7969   -0.0613 H         1 <0>         0.1983
     41 H14         7.4609    5.2832    0.2956 H         1 <0>         0.1498
     42 H15         6.3213    7.4473    0.5350 H         1 <0>         0.1373
     43 H16         7.5734    9.5448    0.2520 H         1 <0>         0.1395
     44 H17         9.9761    9.4965   -0.2650 H         1 <0>         0.1482
     45 H18        11.6172    7.2424   -1.5017 H         1 <0>         0.2352
@<TRIPOS>BOND
     1    1    2 1
     2    1   29 1
     3    1   30 1
     4    1   31 1
     5    2    3 1
     6    3    8 ar
     7    3    4 ar
     8    4    5 ar
     9    4   32 1
    10    5    6 ar
    11    5   33 1
    12    6    7 ar
    13    6   11 1
    14    7    8 ar
    15    7   34 1
    16    8    9 1
    17    9   10 1
    18   10   35 1
    19   10   36 1
    20   10   37 1
    21   11   16 2
    22   11   12 1
    23   12   13 2
    24   12   38 1
    25   13   14 1
    26   13   17 1
    27   14   15 1
    28   14   16 1
    29   17   18 2
    30   17   19 am
    31   19   20 1
    32   19   39 1
    33   20   21 2
    34   21   22 1
    35   21   40 1
    36   22   27 ar
    37   22   23 ar
    38   23   24 ar
    39   23   41 1
    40   24   25 ar
    41   24   42 1
    42   25   26 ar
    43   25   43 1
    44   26   27 ar
    45   26   44 1
    46   27   28 1
    47   28   45 1
@<TRIPOS>MOLECULE
ZINC03970212
   41    43     0     0     0
SMALL
USER_CHARGES

@<TRIPOS>ATOM
      1 C1         -6.3680   11.0726    3.7381 C.3       1 <0>        -0.1304
      2 C2         -5.2069   10.2041    3.3275 C.2       1 <0>        -0.2546
      3 C3         -3.8954   10.5327    3.2092 C.2       1 <0>        -0.1829
      4 C4         -2.9933    9.5658    2.8202 C.2       1 <0>        -0.1473
      5 C5         -3.4542    8.3051    2.5540 C.2       1 <0>        -0.1963
      6 S1         -5.2024    8.4779    2.8724 S.3       1 <0>         0.3519
      7 C6         -2.6992    7.1085    2.1211 C.2       1 <0>        -0.0358
      8 C7         -3.2374    5.8325    1.8636 C.2       1 <0>        -0.1439
      9 C8         -2.1595    5.0502    1.4952 C.2       1 <0>        -0.1648
     10 N1         -1.0597    5.8606    1.5367 N.pl3     1 <0>        -0.1101
     11 H1         -0.1272    5.5748    1.3158 H         1 <0>         0.2827
     12 N2         -1.4014    7.0436    1.9014 N.2       1 <0>        -0.0645
     13 C9         -2.1907    3.6264    1.1249 C.2       1 <0>         0.3850
     14 O1         -3.2452    3.0196    1.1295 O.2       1 <0>        -0.2982
     15 N3         -1.0510    2.9946    0.7807 N.am      1 <0>        -0.3473
     16 N4         -1.0807    1.6390    0.4281 N.2       1 <0>         0.0284
     17 C10        -0.0062    1.0595   -0.0135 C.2       1 <0>        -0.0996
     18 C11         1.1760    1.8671   -0.3630 C.ar      1 <0>        -0.0855
     19 C12         1.0248    3.2000   -0.7561 C.ar      1 <0>        -0.1838
     20 C13         2.1332    3.9523   -1.0818 C.ar      1 <0>        -0.0974
     21 C14         3.3989    3.3945   -1.0214 C.ar      1 <0>        -0.2009
     22 C15         3.5640    2.0743   -0.6334 C.ar      1 <0>         0.0768
     23 C16         2.4563    1.3049   -0.2974 C.ar      1 <0>         0.0666
     24 O2          2.6151    0.0115    0.0885 O.3       1 <0>        -0.2713
     25 O3          4.8104    1.5332   -0.5759 O.3       1 <0>        -0.1972
     26 C17         5.9035    2.3832   -0.9291 C.3       1 <0>        -0.0663
     27 H2         -7.2847   10.4831    3.7262 H         1 <0>         0.0875
     28 H3         -6.1963   11.4572    4.7435 H         1 <0>         0.0930
     29 H4         -6.4627   11.9057    3.0417 H         1 <0>         0.0927
     30 H5         -3.5622   11.5379    3.4213 H         1 <0>         0.1427
     31 H6         -1.9433    9.7995    2.7241 H         1 <0>         0.1521
     32 H7         -4.2713    5.5298    1.9394 H         1 <0>         0.1860
     33 H8         -0.2103    3.4784    0.7771 H         1 <0>         0.2202
     34 H9          0.0198   -0.0140   -0.1291 H         1 <0>         0.1931
     35 H10         0.0399    3.6405   -0.8043 H         1 <0>         0.1506
     36 H11         2.0136    4.9819   -1.3852 H         1 <0>         0.1375
     37 H12         4.2618    3.9909   -1.2782 H         1 <0>         0.1439
     38 H13         2.6665   -0.6148   -0.6465 H         1 <0>         0.2317
     39 H14         6.8380    1.8291   -0.8407 H         1 <0>         0.1156
     40 H15         5.7801    2.7260   -1.9564 H         1 <0>         0.0687
     41 H16         5.9263    3.2430   -0.2595 H         1 <0>         0.0712
@<TRIPOS>BOND
     1    1    2 1
     2    1   27 1
     3    1   28 1
     4    1   29 1
     5    2    6 1
     6    2    3 2
     7    3    4 1
     8    3   30 1
     9    4    5 2
    10    4   31 1
    11    5    6 1
    12    5    7 1
    13    7   12 2
    14    7    8 1
    15    8    9 2
    16    8   32 1
    17    9   10 1
    18    9   13 1
    19   10   11 1
    20   10   12 1
    21   13   14 2
    22   13   15 am
    23   15   16 1
    24   15   33 1
    25   16   17 2
    26   17   18 1
    27   17   34 1
    28   18   23 ar
    29   18   19 ar
    30   19   20 ar
    31   19   35 1
    32   20   21 ar
    33   20   36 1
    34   21   22 ar
    35   21   37 1
    36   22   23 ar
    37   22   25 1
    38   23   24 1
    39   24   38 1
    40   25   26 1
    41   26   39 1
    42   26   40 1
    43   26   41 1
@<TRIPOS>MOLECULE
ZINC03970212
   41    43     0     0     0
SMALL
USER_CHARGES

@<TRIPOS>ATOM
      1 C1         -6.3698   11.0758    3.7260 C.3       1 <0>        -0.1315
      2 C2         -5.2084   10.2067    3.3177 C.2       1 <0>        -0.2541
      3 C3         -3.8967   10.5351    3.2002 C.2       1 <0>        -0.1799
      4 C4         -2.9943    9.5676    2.8134 C.2       1 <0>        -0.1687
      5 C5         -3.4550    8.3066    2.5484 C.2       1 <0>        -0.2227
      6 S1         -5.2035    8.4799    2.8649 S.3       1 <0>         0.3901
      7 C6         -2.6997    7.1094    2.1178 C.2       1 <0>        -0.0480
      8 C7         -3.2377    5.8331    1.8615 C.2       1 <0>        -0.1598
      9 C8         -2.1595    5.0502    1.4952 C.2       1 <0>        -0.1513
     10 N1         -1.0585    5.8585    1.5445 N.2       1 <0>        -0.1173
     11 H1         -0.7675    7.8090    2.0127 H         1 <0>         0.2871
     12 N2         -1.4007    7.0423    1.9062 N.pl3     1 <0>        -0.0444
     13 C9         -2.1907    3.6264    1.1249 C.2       1 <0>         0.4028
     14 O1         -3.2452    3.0196    1.1295 O.2       1 <0>        -0.3168
     15 N3         -1.0510    2.9946    0.7807 N.am      1 <0>        -0.3344
     16 N4         -1.0807    1.6390    0.4281 N.2       1 <0>         0.0206
     17 C10        -0.0062    1.0595   -0.0135 C.2       1 <0>        -0.1038
     18 C11         1.1760    1.8671   -0.3630 C.ar      1 <0>        -0.0865
     19 C12         1.0248    3.2000   -0.7561 C.ar      1 <0>        -0.1683
     20 C13         2.1332    3.9523   -1.0818 C.ar      1 <0>        -0.0916
     21 C14         3.3989    3.3945   -1.0214 C.ar      1 <0>        -0.2038
     22 C15         3.5640    2.0743   -0.6334 C.ar      1 <0>         0.0718
     23 C16         2.4563    1.3049   -0.2974 C.ar      1 <0>         0.0632
     24 O2          2.6151    0.0115    0.0885 O.3       1 <0>        -0.2723
     25 O3          4.8104    1.5332   -0.5759 O.3       1 <0>        -0.1998
     26 C17         5.9035    2.3832   -0.9291 C.3       1 <0>        -0.0652
     27 H2         -7.2865   10.4864    3.7140 H         1 <0>         0.0898
     28 H3         -6.1991   11.4617    4.7311 H         1 <0>         0.0951
     29 H4         -6.4638   11.9080    3.0284 H         1 <0>         0.0949
     30 H5         -3.5637   11.5405    3.4113 H         1 <0>         0.1448
     31 H6         -1.9442    9.8011    2.7180 H         1 <0>         0.1311
     32 H7         -4.2719    5.5308    1.9355 H         1 <0>         0.1850
     33 H8         -0.2103    3.4784    0.7771 H         1 <0>         0.2424
     34 H9          0.0198   -0.0140   -0.1291 H         1 <0>         0.1888
     35 H10         0.0399    3.6405   -0.8043 H         1 <0>         0.1578
     36 H11         2.0136    4.9819   -1.3852 H         1 <0>         0.1371
     37 H12         4.2618    3.9909   -1.2782 H         1 <0>         0.1398
     38 H13         2.6665   -0.6148   -0.6465 H         1 <0>         0.2283
     39 H14         6.8380    1.8291   -0.8407 H         1 <0>         0.1123
     40 H15         5.7801    2.7260   -1.9564 H         1 <0>         0.0669
     41 H16         5.9263    3.2430   -0.2595 H         1 <0>         0.0703
@<TRIPOS>BOND
     1    1    2 1
     2    1   27 1
     3    1   28 1
     4    1   29 1
     5    2    6 1
     6    2    3 2
     7    3    4 1
     8    3   30 1
     9    4    5 2
    10    4   31 1
    11    5    6 1
    12    5    7 1
    13    7    8 2
    14    7   12 1
    15    8   32 1
    16    8    9 1
    17    9   13 1
    18    9   10 2
    19   10   12 1
    20   11   12 1
    21   13   14 2
    22   13   15 am
    23   15   16 1
    24   15   33 1
    25   16   17 2
    26   17   18 1
    27   17   34 1
    28   18   23 ar
    29   18   19 ar
    30   19   20 ar
    31   19   35 1
    32   20   21 ar
    33   20   36 1
    34   21   22 ar
    35   21   37 1
    36   22   23 ar
    37   22   25 1
    38   23   24 1
    39   24   38 1
    40   25   26 1
    41   26   39 1
    42   26   40 1
    43   26   41 1
@<TRIPOS>MOLECULE
ZINC03970301
   43    45     0     0     0
SMALL
USER_CHARGES

@<TRIPOS>ATOM
      1 C1         -3.6840   -0.7839   -0.0631 C.3       1 <0>        -0.0675
      2 O1         -4.9450   -0.1183   -0.1585 O.3       1 <0>        -0.1915
      3 C2         -4.9275    1.2408   -0.1514 C.ar      1 <0>         0.0893
      4 C3         -3.7196    1.9168   -0.0549 C.ar      1 <0>        -0.1877
      5 C4         -3.6955    3.2954   -0.0535 C.ar      1 <0>        -0.1443
      6 C5         -4.8905    4.0150   -0.1377 C.ar      1 <0>        -0.1061
      7 C6         -6.1069    3.3337   -0.2348 C.ar      1 <0>        -0.1674
      8 C7         -6.1224    1.9516   -0.2414 C.ar      1 <0>         0.0752
      9 O2         -7.3043    1.2855   -0.3354 O.3       1 <0>        -0.1926
     10 C8         -8.4903    2.0777   -0.4240 C.3       1 <0>        -0.0658
     11 C9         -4.8677    5.4885   -0.1301 C.2       1 <0>        -0.0970
     12 N1         -3.7888    6.1230   -0.4765 N.2       1 <0>         0.0098
     13 N2         -2.7634    5.4458   -1.1494 N.am      1 <0>        -0.3339
     14 C10        -1.5857    6.0606   -1.3765 C.2       1 <0>         0.3564
     15 O3         -1.3801    7.1681   -0.9195 O.2       1 <0>        -0.3211
     16 C11        -0.5414    5.3864   -2.1831 C.2       1 <0>        -0.0275
     17 C12        -0.7016    4.0940   -2.5961 C.2       1 <0>        -0.1970
     18 C13         0.3069    3.4664   -3.3666 C.2       1 <0>         0.3325
     19 O4          0.1476    2.3136   -3.7269 O.2       1 <0>        -0.3686
     20 N3          1.4355    4.1100   -3.7107 N.am      1 <0>        -0.2770
     21 H1          2.1257    3.6335   -4.2554 H         1 <0>         0.2556
     22 C14         1.6591    5.4151   -3.3265 C.ar      1 <0>         0.0948
     23 C15         0.6934    6.0923   -2.5593 C.ar      1 <0>        -0.1048
     24 C16         0.9166    7.4140   -2.1676 C.ar      1 <0>        -0.0613
     25 C17         2.0759    8.0417   -2.5285 C.ar      1 <0>        -0.1677
     26 C18         3.0293    7.3797   -3.2896 C.ar      1 <0>        -0.0705
     27 C19         2.8297    6.0750   -3.6868 C.ar      1 <0>        -0.1899
     28 H2         -3.1941   -0.5021    0.8689 H         1 <0>         0.0682
     29 H3         -3.8403   -1.8625   -0.0798 H         1 <0>         0.1142
     30 H4         -3.0559   -0.4946   -0.9056 H         1 <0>         0.0723
     31 H5         -2.7958    1.3618    0.0147 H         1 <0>         0.1488
     32 H6         -2.7535    3.8190    0.0169 H         1 <0>         0.1492
     33 H7         -7.0325    3.8858   -0.3042 H         1 <0>         0.1458
     34 H8         -9.3596    1.4238   -0.4938 H         1 <0>         0.1138
     35 H9         -8.5766    2.7033    0.4644 H         1 <0>         0.0670
     36 H10        -8.4394    2.7102   -1.3102 H         1 <0>         0.0672
     37 H11        -5.7482    6.0407    0.1636 H         1 <0>         0.1846
     38 H12        -2.9010    4.5345   -1.4519 H         1 <0>         0.2341
     39 H13        -1.5976    3.5508   -2.3345 H         1 <0>         0.1577
     40 H14         0.1777    7.9370   -1.5787 H         1 <0>         0.1919
     41 H15         2.2498    9.0626   -2.2222 H         1 <0>         0.1390
     42 H16         3.9387    7.8906   -3.5698 H         1 <0>         0.1347
     43 H17         3.5793    5.5667   -4.2751 H         1 <0>         0.1368
@<TRIPOS>BOND
     1    1    2 1
     2    1   28 1
     3    1   29 1
     4    1   30 1
     5    2    3 1
     6    3    8 ar
     7    3    4 ar
     8    4    5 ar
     9    4   31 1
    10    5    6 ar
    11    5   32 1
    12    6    7 ar
    13    6   11 1
    14    7    8 ar
    15    7   33 1
    16    8    9 1
    17    9   10 1
    18   10   34 1
    19   10   35 1
    20   10   36 1
    21   11   12 2
    22   11   37 1
    23   12   13 1
    24   13   14 am
    25   13   38 1
    26   14   15 2
    27   14   16 1
    28   16   23 1
    29   16   17 2
    30   17   18 1
    31   17   39 1
    32   18   19 2
    33   18   20 am
    34   20   21 1
    35   20   22 1
    36   22   27 ar
    37   22   23 ar
    38   23   24 ar
    39   24   25 ar
    40   24   40 1
    41   25   26 ar
    42   25   41 1
    43   26   27 ar
    44   26   42 1
    45   27   43 1
@<TRIPOS>MOLECULE
ZINC03970301
   43    45     0     0     0
SMALL
USER_CHARGES

@<TRIPOS>ATOM
      1 C1         -2.3848   -8.1778   -0.3337 C.3       1 <0>        -0.0655
      2 O1         -1.1984   -8.9740   -0.3556 O.3       1 <0>        -0.1908
      3 C2         -0.0123   -8.3170   -0.2612 C.ar      1 <0>         0.0866
      4 C3          0.0058   -6.9341   -0.1495 C.ar      1 <0>        -0.1940
      5 C4          1.2057   -6.2629   -0.0471 C.ar      1 <0>        -0.1393
      6 C5          2.4082   -6.9747   -0.0675 C.ar      1 <0>        -0.1025
      7 C6          2.3896   -8.3674   -0.1802 C.ar      1 <0>        -0.1673
      8 C7          1.1824   -9.0336   -0.2766 C.ar      1 <0>         0.0749
      9 O2          1.1607  -10.3890   -0.3867 O.3       1 <0>        -0.1928
     10 C8          2.4226  -11.0594   -0.3964 C.3       1 <0>        -0.0660
     11 C9          3.6924   -6.2589    0.0355 C.2       1 <0>        -0.1018
     12 N1          3.7177   -5.0260    0.4421 N.2       1 <0>         0.0113
     13 N2          2.7091   -4.5467    1.2881 N.am      1 <0>        -0.3284
     14 C10         2.6581   -3.2367    1.6010 C.2       1 <0>         0.3590
     15 O3          3.4872   -2.4709    1.1489 O.2       1 <0>        -0.3147
     16 C11         1.5937   -2.7309    2.4938 C.ar      1 <0>        -0.0376
     17 C12         0.5635   -3.5537    2.9282 C.ar      1 <0>        -0.2416
     18 C13        -0.4232   -3.0330    3.7727 C.ar      1 <0>         0.1641
     19 N3         -0.4155   -1.7841    4.1765 N.ar      1 <0>        -0.1728
     20 C14         0.5352   -0.9202    3.8099 C.ar      1 <0>         0.0644
     21 C15         1.5832   -1.3426    2.9555 C.ar      1 <0>        -0.0856
     22 C16         2.5780   -0.4361    2.5725 C.ar      1 <0>        -0.0970
     23 C17         2.5289    0.8485    3.0266 C.ar      1 <0>        -0.1376
     24 C18         1.5007    1.2692    3.8669 C.ar      1 <0>        -0.1035
     25 C19         0.5179    0.4126    4.2582 C.ar      1 <0>        -0.1143
     26 O4         -1.4236   -3.8481    4.1890 O.3       1 <0>        -0.2274
     27 H1         -2.4318   -7.6217    0.6024 H         1 <0>         0.0637
     28 H2         -2.3693   -7.4797   -1.1707 H         1 <0>         0.0706
     29 H3         -3.2582   -8.8246   -0.4163 H         1 <0>         0.1155
     30 H4         -0.9228   -6.3825   -0.1379 H         1 <0>         0.1447
     31 H5          1.2167   -5.1868    0.0447 H         1 <0>         0.1484
     32 H6          3.3163   -8.9219   -0.1923 H         1 <0>         0.1467
     33 H7          3.0151  -10.7065   -1.2404 H         1 <0>         0.0683
     34 H8          2.9526  -10.8495    0.5327 H         1 <0>         0.0667
     35 H9          2.2626  -12.1336   -0.4887 H         1 <0>         0.1147
     36 H10         4.6125   -6.7598   -0.2272 H         1 <0>         0.1849
     37 H11         2.0476   -5.1576    1.6488 H         1 <0>         0.2245
     38 H12         0.5238   -4.5873    2.6170 H         1 <0>         0.1299
     39 H13         3.3797   -0.7521    1.9215 H         1 <0>         0.1855
     40 H14         3.2964    1.5485    2.7309 H         1 <0>         0.1361
     41 H15         1.4832    2.2918    4.2139 H         1 <0>         0.1340
     42 H16        -0.2744    0.7563    4.9068 H         1 <0>         0.1519
     43 H17        -1.2933   -4.7606    3.8010 H         1 <0>         0.2342
@<TRIPOS>BOND
     1    1    2 1
     2    1   27 1
     3    1   28 1
     4    1   29 1
     5    2    3 1
     6    3    8 ar
     7    3    4 ar
     8    4    5 ar
     9    4   30 1
    10    5    6 ar
    11    5   31 1
    12    6    7 ar
    13    6   11 1
    14    7    8 ar
    15    7   32 1
    16    8    9 1
    17    9   10 1
    18   10   33 1
    19   10   34 1
    20   10   35 1
    21   11   12 2
    22   11   36 1
    23   12   13 1
    24   13   14 am
    25   13   37 1
    26   14   15 2
    27   14   16 1
    28   16   17 ar
    29   16   21 ar
    30   17   38 1
    31   17   18 ar
    32   18   19 ar
    33   18   26 1
    34   19   20 ar
    35   20   25 ar
    36   20   21 ar
    37   21   22 ar
    38   22   23 ar
    39   22   39 1
    40   23   24 ar
    41   23   40 1
    42   24   25 ar
    43   24   41 1
    44   25   42 1
    45   26   43 1
@<TRIPOS>MOLECULE
ZINC03970340
   42    45     0     0     0
SMALL
USER_CHARGES

@<TRIPOS>ATOM
      1 C1          5.8575    3.7024   -0.1482 C.ar      1 <0>        -0.1289
      2 C2          7.0131    4.4364    0.0594 C.ar      1 <0>        -0.1004
      3 C3          6.9456    5.7990    0.2807 C.ar      1 <0>        -0.1482
      4 C4          5.7178    6.4403    0.2961 C.ar      1 <0>         0.0971
      5 C5          4.5451    5.7014    0.0864 C.ar      1 <0>        -0.1377
      6 C6          4.6266    4.3237   -0.1309 C.ar      1 <0>        -0.1238
      7 C7          3.2338    6.3728    0.1011 C.2       1 <0>        -0.0902
      8 N1          2.1652    5.7037    0.4132 N.2       1 <0>         0.0065
      9 N2          2.2780    4.4217    0.9668 N.am      1 <0>        -0.3182
     10 C8          1.1724    3.6831    1.1870 C.2       1 <0>         0.3690
     11 O1          0.0769    4.1294    0.9052 O.2       1 <0>        -0.3134
     12 C9          1.2916    2.3299    1.7713 C.2       1 <0>         0.0925
     13 N3          0.1579    1.5940    1.9880 N.am      1 <0>        -0.2698
     14 H1         -0.7326    1.9812    1.7489 H         1 <0>         0.2773
     15 C10         0.2214    0.3567    2.5180 C.2       1 <0>         0.3493
     16 O2         -0.7909   -0.2942    2.7087 O.2       1 <0>        -0.3457
     17 C11         1.5535   -0.1921    2.8625 C.2       1 <0>        -0.2072
     18 C12         1.8589   -1.4553    3.4231 C.2       1 <0>        -0.0567
     19 C13         3.1628   -1.7423    3.6545 C.2       1 <0>        -0.2738
     20 S1          4.0421   -0.2990    3.1168 S.3       1 <0>         0.4218
     21 C14         2.6423    0.6603    2.5927 C.2       1 <0>        -0.1535
     22 N4          2.4816    1.8636    2.0688 N.2       1 <0>        -0.1815
     23 C15         3.7285   -3.0005    4.2358 C.3       1 <0>        -0.0779
     24 C16         2.5821   -3.7940    4.8798 C.3       1 <0>        -0.1565
     25 C17         1.4121   -3.8541    3.8936 C.3       1 <0>        -0.1640
     26 C18         0.7710   -2.4723    3.7614 C.3       1 <0>        -0.1033
     27 O3          5.6506    7.7792    0.5130 O.3       1 <0>        -0.2894
     28 H2          5.9202    2.6381   -0.3203 H         1 <0>         0.1406
     29 H3          7.9728    3.9411    0.0487 H         1 <0>         0.1381
     30 H4          7.8514    6.3645    0.4421 H         1 <0>         0.1464
     31 H5          3.7274    3.7470   -0.2892 H         1 <0>         0.1536
     32 H6          3.1612    7.4212   -0.1476 H         1 <0>         0.1981
     33 H7          3.1519    4.0657    1.1915 H         1 <0>         0.2512
     34 H8          4.1887   -3.5951    3.4467 H         1 <0>         0.0987
     35 H9          4.4742   -2.7531    4.9913 H         1 <0>         0.0952
     36 H10         2.9202   -4.8049    5.1080 H         1 <0>         0.0863
     37 H11         2.2630   -3.2972    5.7960 H         1 <0>         0.0908
     38 H12         1.7764   -4.1790    2.9191 H         1 <0>         0.0863
     39 H13         0.6684   -4.5633    4.2570 H         1 <0>         0.0870
     40 H14         0.2950   -2.1984    4.7029 H         1 <0>         0.1026
     41 H15         0.0269   -2.4898    2.9651 H         1 <0>         0.1177
     42 H16         5.4905    8.0207    1.4356 H         1 <0>         0.2344
@<TRIPOS>BOND
     1    1    6 ar
     2    1    2 ar
     3    1   28 1
     4    2    3 ar
     5    2   29 1
     6    3    4 ar
     7    3   30 1
     8    4    5 ar
     9    4   27 1
    10    5    6 ar
    11    5    7 1
    12    6   31 1
    13    7    8 2
    14    7   32 1
    15    8    9 1
    16    9   10 am
    17    9   33 1
    18   10   11 2
    19   10   12 1
    20   12   22 2
    21   12   13 1
    22   13   14 1
    23   13   15 am
    24   15   16 2
    25   15   17 1
    26   17   21 2
    27   17   18 1
    28   18   26 1
    29   18   19 2
    30   19   20 1
    31   19   23 1
    32   20   21 1
    33   21   22 1
    34   23   24 1
    35   23   34 1
    36   23   35 1
    37   24   25 1
    38   24   36 1
    39   24   37 1
    40   25   26 1
    41   25   38 1
    42   25   39 1
    43   26   40 1
    44   26   41 1
    45   27   42 1
@<TRIPOS>MOLECULE
ZINC03970340
   42    45     0     0     0
SMALL
USER_CHARGES

@<TRIPOS>ATOM
      1 C1          5.8576    3.7037   -0.1464 C.ar      1 <0>        -0.1303
      2 C2          7.0131    4.4377    0.0616 C.ar      1 <0>        -0.1050
      3 C3          6.9454    5.8003    0.2833 C.ar      1 <0>        -0.1494
      4 C4          5.7176    6.4415    0.2988 C.ar      1 <0>         0.0933
      5 C5          4.5450    5.7025    0.0887 C.ar      1 <0>        -0.1298
      6 C6          4.6266    4.3249   -0.1291 C.ar      1 <0>        -0.1238
      7 C7          3.2336    6.3738    0.1034 C.2       1 <0>        -0.1061
      8 N1          2.1650    5.7045    0.4152 N.2       1 <0>         0.0157
      9 N2          2.2779    4.4224    0.9684 N.am      1 <0>        -0.3323
     10 C8          1.1723    3.6836    1.1882 C.2       1 <0>         0.3788
     11 O1          0.0768    4.1299    0.9064 O.2       1 <0>        -0.2733
     12 C9          1.2915    2.3302    1.7721 C.ar      1 <0>         0.0930
     13 N3          0.1578    1.5945    1.9891 N.ar      1 <0>        -0.2283
     14 H1         -0.5483   -1.1790    3.1065 H         1 <0>         0.2869
     15 C10         0.2213    0.3572    2.5192 C.ar      1 <0>         0.2604
     16 O2         -0.7911   -0.2934    2.7107 O.3       1 <0>        -0.1781
     17 C11         1.5535   -0.1919    2.8629 C.ar      1 <0>        -0.3045
     18 C12         1.8589   -1.4552    3.4233 C.2       1 <0>        -0.1055
     19 C13         3.1629   -1.7426    3.6538 C.2       1 <0>        -0.2527
     20 S1          4.0421   -0.2990    3.1168 S.3       1 <0>         0.4040
     21 C14         2.6423    0.6604    2.5929 C.ar      1 <0>        -0.0866
     22 N4          2.4815    1.8639    2.0695 N.ar      1 <0>        -0.2248
     23 C15         3.7286   -3.0011    4.2344 C.3       1 <0>        -0.0814
     24 C16         2.5824   -3.7946    4.8786 C.3       1 <0>        -0.1557
     25 C17         1.4120   -3.8543    3.8928 C.3       1 <0>        -0.1537
     26 C18         0.7710   -2.4723    3.7613 C.3       1 <0>        -0.1223
     27 O3          5.6503    7.7803    0.5161 O.3       1 <0>        -0.2898
     28 H2          5.9204    2.6395   -0.3188 H         1 <0>         0.1380
     29 H3          7.9728    3.9425    0.0509 H         1 <0>         0.1353
     30 H4          7.8512    6.3658    0.4450 H         1 <0>         0.1441
     31 H5          3.7275    3.7482   -0.2877 H         1 <0>         0.1567
     32 H6          3.1610    7.4223   -0.1450 H         1 <0>         0.1951
     33 H7          3.1518    4.0664    1.1931 H         1 <0>         0.2458
     34 H8          4.1884   -3.5955    3.4450 H         1 <0>         0.1026
     35 H9          4.4746   -2.7540    4.9897 H         1 <0>         0.1014
     36 H10         2.9204   -4.8056    5.1064 H         1 <0>         0.0925
     37 H11         2.2637   -3.2981    5.7951 H         1 <0>         0.0921
     38 H12         1.7759   -4.1789    2.9181 H         1 <0>         0.0943
     39 H13         0.6683   -4.5635    4.2563 H         1 <0>         0.0887
     40 H14         0.2954   -2.1987    4.7031 H         1 <0>         0.0993
     41 H15         0.0266   -2.4895    2.9653 H         1 <0>         0.0821
     42 H16         5.4900    8.0215    1.4387 H         1 <0>         0.2331
@<TRIPOS>BOND
     1    1    6 ar
     2    1    2 ar
     3    1   28 1
     4    2    3 ar
     5    2   29 1
     6    3    4 ar
     7    3   30 1
     8    4    5 ar
     9    4   27 1
    10    5    6 ar
    11    5    7 1
    12    6   31 1
    13    7    8 2
    14    7   32 1
    15    8    9 1
    16    9   10 am
    17    9   33 1
    18   10   11 2
    19   10   12 1
    20   12   22 ar
    21   12   13 ar
    22   13   15 ar
    23   14   16 1
    24   15   16 1
    25   15   17 ar
    26   17   18 1
    27   17   21 ar
    28   18   26 1
    29   18   19 2
    30   19   20 1
    31   19   23 1
    32   20   21 1
    33   21   22 ar
    34   23   24 1
    35   23   34 1
    36   23   35 1
    37   24   25 1
    38   24   36 1
    39   24   37 1
    40   25   26 1
    41   25   38 1
    42   25   39 1
    43   26   40 1
    44   26   41 1
    45   27   42 1
@<TRIPOS>MOLECULE
ZINC03970340
   42    45     0     0     0
SMALL
USER_CHARGES

@<TRIPOS>ATOM
      1 C1          5.8572    3.7029   -0.1481 C.ar      1 <0>        -0.1379
      2 C2          7.0128    4.4367    0.0595 C.ar      1 <0>        -0.0987
      3 C3          6.9455    5.7993    0.2811 C.ar      1 <0>        -0.1432
      4 C4          5.7177    6.4407    0.2969 C.ar      1 <0>         0.1003
      5 C5          4.5449    5.7019    0.0873 C.ar      1 <0>        -0.1301
      6 C6          4.6263    4.3242   -0.1304 C.ar      1 <0>        -0.1436
      7 C7          3.2337    6.3734    0.1024 C.2       1 <0>        -0.0969
      8 N1          2.1651    5.7043    0.4145 N.2       1 <0>         0.0266
      9 N2          2.2779    4.4221    0.9678 N.am      1 <0>        -0.3546
     10 C8          1.1723    3.6835    1.1880 C.2       1 <0>         0.3489
     11 O1          0.0768    4.1300    0.9065 O.2       1 <0>        -0.2278
     12 C9          1.2915    2.3302    1.7720 C.2       1 <0>         0.0977
     13 N3          0.1578    1.5943    1.9887 N.2       1 <0>        -0.2083
     14 H1          3.2859    2.4322    1.8960 H         1 <0>         0.2410
     15 C10         0.2214    0.3569    2.5184 C.2       1 <0>         0.3189
     16 O2         -0.7909   -0.2940    2.7091 O.2       1 <0>        -0.2994
     17 C11         1.5534   -0.1915    2.8638 C.2       1 <0>        -0.2150
     18 C12         1.8587   -1.4544    3.4251 C.2       1 <0>        -0.0439
     19 C13         3.1626   -1.7412    3.6571 C.2       1 <0>        -0.2716
     20 S1          4.0419   -0.2981    3.1190 S.3       1 <0>         0.3654
     21 C14         2.6422    0.6608    2.5939 C.2       1 <0>        -0.1821
     22 N4          2.4815    1.8640    2.0697 N.pl3     1 <0>        -0.1623
     23 C15         3.7282   -2.9991    4.2392 C.3       1 <0>        -0.0764
     24 C16         2.5817   -3.7924    4.8832 C.3       1 <0>        -0.1560
     25 C17         1.4120   -3.8531    3.8967 C.3       1 <0>        -0.1650
     26 C18         0.7708   -2.4714    3.7636 C.3       1 <0>        -0.1015
     27 O3          5.6506    7.7795    0.5141 O.3       1 <0>        -0.2861
     28 H2          5.9198    2.6386   -0.3204 H         1 <0>         0.1383
     29 H3          7.9725    3.9414    0.0485 H         1 <0>         0.1415
     30 H4          7.8513    6.3647    0.4425 H         1 <0>         0.1504
     31 H5          3.7270    3.7476   -0.2887 H         1 <0>         0.1459
     32 H6          3.1611    7.4218   -0.1461 H         1 <0>         0.2025
     33 H7          3.1518    4.0660    1.1922 H         1 <0>         0.2142
     34 H8          4.1887   -3.5940    3.4505 H         1 <0>         0.0976
     35 H9          4.4737   -2.7512    4.9948 H         1 <0>         0.0933
     36 H10         2.9198   -4.8031    5.1120 H         1 <0>         0.0865
     37 H11         2.2622   -3.2951    5.7991 H         1 <0>         0.0913
     38 H12         1.7766   -4.1784    2.9224 H         1 <0>         0.0862
     39 H13         0.6683   -4.5621    4.2602 H         1 <0>         0.0885
     40 H14         0.2945   -2.1971    4.7048 H         1 <0>         0.1054
     41 H15         0.0270   -2.4893    2.9671 H         1 <0>         0.1231
     42 H16         5.4907    8.0208    1.4368 H         1 <0>         0.2367
@<TRIPOS>BOND
     1    1    6 ar
     2    1    2 ar
     3    1   28 1
     4    2    3 ar
     5    2   29 1
     6    3    4 ar
     7    3   30 1
     8    4    5 ar
     9    4   27 1
    10    5    6 ar
    11    5    7 1
    12    6   31 1
    13    7    8 2
    14    7   32 1
    15    8    9 1
    16    9   10 am
    17    9   33 1
    18   10   11 2
    19   10   12 1
    20   12   22 1
    21   12   13 2
    22   13   15 1
    23   14   22 1
    24   15   16 2
    25   15   17 1
    26   17   18 1
    27   17   21 2
    28   18   26 1
    29   18   19 2
    30   19   20 1
    31   19   23 1
    32   20   21 1
    33   21   22 1
    34   23   24 1
    35   23   34 1
    36   23   35 1
    37   24   25 1
    38   24   36 1
    39   24   37 1
    40   25   26 1
    41   25   38 1
    42   25   39 1
    43   26   40 1
    44   26   41 1
    45   27   42 1
@<TRIPOS>MOLECULE
ZINC03970589
   44    46     0     0     0
SMALL
USER_CHARGES

@<TRIPOS>ATOM
      1 C1         -5.0827    9.2078   -3.6367 C.ar      1 <0>        -0.1625
      2 C2         -4.1860    9.9360   -4.3969 C.ar      1 <0>        -0.0876
      3 C3         -3.1868    9.2889   -5.0971 C.ar      1 <0>        -0.1823
      4 C4         -3.0832    7.9049   -5.0370 C.ar      1 <0>         0.0911
      5 C5         -3.9892    7.1760   -4.2769 C.ar      1 <0>        -0.1872
      6 C6         -4.9827    7.8299   -3.5751 C.ar      1 <0>        -0.0878
      7 N1         -2.0733    7.2469   -5.7442 N.pl3     1 <0>        -0.3229
      8 C7         -1.8521    5.9046   -5.5387 C.2       1 <0>         0.2133
      9 C8         -1.4168    5.4269   -4.2744 C.2       1 <0>        -0.2164
     10 C9         -1.1982    4.0798   -4.0966 C.2       1 <0>         0.0075
     11 N2         -1.4023    3.1994   -5.1086 N.am      1 <0>        -0.2479
     12 H1         -1.2429    2.2253   -4.9484 H         1 <0>         0.2606
     13 C10        -1.8141    3.6072   -6.3223 C.2       1 <0>         0.3390
     14 O1         -1.9837    2.7899   -7.2111 O.2       1 <0>        -0.3484
     15 C11        -2.0521    4.9793   -6.5735 C.2       1 <0>        -0.1630
     16 C12        -2.4902    5.4165   -7.8649 C.1       1 <0>        -0.0600
     17 N3         -2.8377    5.7633   -8.8893 N.1       1 <0>        -0.0287
     18 C13        -1.1947    6.3682   -3.1616 C.2       1 <0>        -0.1159
     19 N4         -0.3528    6.0717   -2.2187 N.2       1 <0>        -0.0008
     20 N5          0.5066    4.9752   -2.3663 N.pl3     1 <0>        -0.3300
     21 C14         1.3245    4.5886   -1.3149 C.2       1 <0>         0.0344
     22 C15         1.2628    5.2743   -0.2044 C.2       1 <0>        -0.2286
     23 C16         2.0933    4.9777    1.0101 C.3       1 <0>        -0.1110
     24 C17         2.6762    3.5664    0.9222 C.3       1 <0>        -0.1631
     25 C18         3.3267    3.3932   -0.4560 C.3       1 <0>        -0.1504
     26 C19         2.2280    3.4080   -1.5209 C.3       1 <0>        -0.1228
     27 H2         -5.8631    9.7163   -3.0901 H         1 <0>         0.1333
     28 H3         -4.2669   11.0120   -4.4429 H         1 <0>         0.1347
     29 H4         -2.4870    9.8582   -5.6909 H         1 <0>         0.1341
     30 H5         -3.9142    6.0996   -4.2317 H         1 <0>         0.1393
     31 H6         -5.6849    7.2642   -2.9807 H         1 <0>         0.1346
     32 H7         -1.5284    7.7365   -6.3800 H         1 <0>         0.2550
     33 H8         -0.8628    3.7175   -3.1360 H         1 <0>         0.1876
     34 H9         -1.7324    7.3044   -3.1308 H         1 <0>         0.1996
     35 H10         0.5297    4.4864   -3.2038 H         1 <0>         0.2172
     36 H11         0.5727    6.1037   -0.1574 H         1 <0>         0.1494
     37 H12         2.9087    5.6982    1.0749 H         1 <0>         0.0878
     38 H13         1.4706    5.0555    1.9014 H         1 <0>         0.0865
     39 H14         1.8771    2.8353    1.0446 H         1 <0>         0.0836
     40 H15         3.4260    3.4278    1.7011 H         1 <0>         0.0827
     41 H16         3.8595    2.4430   -0.4927 H         1 <0>         0.0830
     42 H17         4.0237    4.2113   -0.6375 H         1 <0>         0.0915
     43 H18         2.6835    3.4697   -2.5092 H         1 <0>         0.0851
     44 H19         1.6430    2.4911   -1.4493 H         1 <0>         0.0864
@<TRIPOS>BOND
     1    1    6 ar
     2    1    2 ar
     3    1   27 1
     4    2    3 ar
     5    2   28 1
     6    3    4 ar
     7    3   29 1
     8    4    5 ar
     9    4    7 1
    10    5    6 ar
    11    5   30 1
    12    6   31 1
    13    7    8 1
    14    7   32 1
    15    8   15 2
    16    8    9 1
    17    9   10 2
    18    9   18 1
    19   10   11 1
    20   10   33 1
    21   11   12 1
    22   11   13 am
    23   13   14 2
    24   13   15 1
    25   15   16 1
    26   16   17 3
    27   18   19 2
    28   18   34 1
    29   19   20 1
    30   20   21 1
    31   20   35 1
    32   21   26 1
    33   21   22 2
    34   22   23 1
    35   22   36 1
    36   23   24 1
    37   23   37 1
    38   23   38 1
    39   24   25 1
    40   24   39 1
    41   24   40 1
    42   25   26 1
    43   25   41 1
    44   25   42 1
    45   26   43 1
    46   26   44 1
@<TRIPOS>MOLECULE
ZINC03970589
   44    46     0     0     0
SMALL
USER_CHARGES

@<TRIPOS>ATOM
      1 C1         -5.0837    9.2075   -3.6373 C.ar      1 <0>        -0.1633
      2 C2         -4.1869    9.9358   -4.3973 C.ar      1 <0>        -0.0881
      3 C3         -3.1874    9.2888   -5.0972 C.ar      1 <0>        -0.1840
      4 C4         -3.0838    7.9048   -5.0371 C.ar      1 <0>         0.0920
      5 C5         -3.9900    7.1758   -4.2773 C.ar      1 <0>        -0.1870
      6 C6         -4.9837    7.8296   -3.5758 C.ar      1 <0>        -0.0873
      7 N1         -2.0737    7.2469   -5.7441 N.pl3     1 <0>        -0.3257
      8 C7         -1.8524    5.9046   -5.5386 C.ar      1 <0>         0.2216
      9 C8         -1.4175    5.4268   -4.2742 C.ar      1 <0>        -0.2307
     10 C9         -1.1986    4.0798   -4.0965 C.ar      1 <0>         0.0171
     11 N2         -1.4018    3.1995   -5.1088 N.ar      1 <0>        -0.2285
     12 H1         -2.2865    3.2582   -8.0412 H         1 <0>         0.2771
     13 C10        -1.8136    3.6073   -6.3225 C.ar      1 <0>         0.2494
     14 O1         -1.9825    2.7900   -7.2115 O.3       1 <0>        -0.1672
     15 C11        -2.0518    4.9793   -6.5736 C.ar      1 <0>        -0.2535
     16 C12        -2.4899    5.4165   -7.8650 C.1       1 <0>        -0.0977
     17 N3         -2.8374    5.7633   -8.8894 N.1       1 <0>        -0.0269
     18 C13        -1.1957    6.3681   -3.1613 C.2       1 <0>        -0.1257
     19 N4         -0.3541    6.0716   -2.2182 N.2       1 <0>         0.0009
     20 N5          0.5054    4.9751   -2.3656 N.pl3     1 <0>        -0.3270
     21 C14         1.3230    4.5885   -1.3140 C.2       1 <0>         0.0413
     22 C15         1.2610    5.2742   -0.2034 C.2       1 <0>        -0.2371
     23 C16         2.0912    4.9775    1.0113 C.3       1 <0>        -0.1093
     24 C17         2.6742    3.5663    0.9235 C.3       1 <0>        -0.1630
     25 C18         3.3251    3.3932   -0.4546 C.3       1 <0>        -0.1507
     26 C19         2.2267    3.4080   -1.5198 C.3       1 <0>        -0.1234
     27 H2         -5.8643    9.7159   -3.0909 H         1 <0>         0.1330
     28 H3         -4.2678   11.0118   -4.4432 H         1 <0>         0.1341
     29 H4         -2.4875    9.8581   -5.6908 H         1 <0>         0.1329
     30 H5         -3.9149    6.0994   -4.2322 H         1 <0>         0.1413
     31 H6         -5.6860    7.2638   -2.9816 H         1 <0>         0.1351
     32 H7         -1.5286    7.7365   -6.3797 H         1 <0>         0.2518
     33 H8         -0.8600    3.7178   -3.1369 H         1 <0>         0.1979
     34 H9         -1.7335    7.3042   -3.1306 H         1 <0>         0.1935
     35 H10         0.5288    4.4864   -3.2031 H         1 <0>         0.2248
     36 H11         0.5708    6.1035   -0.1566 H         1 <0>         0.1479
     37 H12         2.9065    5.6981    1.0763 H         1 <0>         0.0850
     38 H13         1.4682    5.0553    1.9024 H         1 <0>         0.0847
     39 H14         1.8751    2.8351    1.0456 H         1 <0>         0.0847
     40 H15         3.4237    3.4277    1.7026 H         1 <0>         0.0802
     41 H16         3.8579    2.4430   -0.4912 H         1 <0>         0.0820
     42 H17         4.0221    4.2113   -0.6358 H         1 <0>         0.0890
     43 H18         2.6824    3.4697   -2.5079 H         1 <0>         0.0861
     44 H19         1.6417    2.4910   -1.4484 H         1 <0>         0.0928
@<TRIPOS>BOND
     1    1    6 ar
     2    1    2 ar
     3    1   27 1
     4    2    3 ar
     5    2   28 1
     6    3    4 ar
     7    3   29 1
     8    4    5 ar
     9    4    7 1
    10    5    6 ar
    11    5   30 1
    12    6   31 1
    13    7    8 1
    14    7   32 1
    15    8   15 ar
    16    8    9 ar
    17    9   18 1
    18    9   10 ar
    19   10   33 1
    20   10   11 ar
    21   11   13 ar
    22   12   14 1
    23   13   14 1
    24   13   15 ar
    25   15   16 1
    26   16   17 3
    27   18   19 2
    28   18   34 1
    29   19   20 1
    30   20   21 1
    31   20   35 1
    32   21   26 1
    33   21   22 2
    34   22   23 1
    35   22   36 1
    36   23   24 1
    37   23   37 1
    38   23   38 1
    39   24   25 1
    40   24   39 1
    41   24   40 1
    42   25   26 1
    43   25   41 1
    44   25   42 1
    45   26   43 1
    46   26   44 1
@<TRIPOS>MOLECULE
ZINC03971030
   42    44     0     0     0
SMALL
USER_CHARGES

@<TRIPOS>ATOM
      1 C1          6.0925   -0.6870    1.7832 C.3       1 <0>        -0.2108
      2 C2          4.6936   -0.1745    1.4346 C.3       1 <0>        -0.0193
      3 O1          4.5761    1.1943    1.8277 O.3       1 <0>        -0.1992
      4 C3          3.3855    1.8058    1.5868 C.ar      1 <0>         0.0775
      5 C4          2.3571    1.1039    0.9870 C.ar      1 <0>        -0.1891
      6 C5          1.1349    1.7355    0.7411 C.ar      1 <0>        -0.0757
      7 C6          0.9605    3.0754    1.0981 C.ar      1 <0>        -0.1614
      8 C7          1.9893    3.7673    1.7013 C.ar      1 <0>        -0.1144
      9 C8          3.2025    3.1398    1.9453 C.ar      1 <0>         0.0564
     10 O2          4.2153    3.8283    2.5351 O.3       1 <0>        -0.2740
     11 C9          0.0348    0.9923    0.1013 C.2       1 <0>        -0.0971
     12 N1         -1.0393    1.6182   -0.2749 N.2       1 <0>         0.0059
     13 N2         -0.9648    2.9585   -0.6758 N.am      1 <0>        -0.3060
     14 C10        -2.0937    3.6502   -0.9281 C.2       1 <0>         0.3621
     15 O3         -3.1765    3.1110   -0.8078 O.2       1 <0>        -0.3133
     16 C11        -2.0149    5.0679   -1.3522 C.2       1 <0>         0.0978
     17 N3         -3.1817    5.7399   -1.6001 N.am      1 <0>        -0.2888
     18 H1         -4.0581    5.2704   -1.4932 H         1 <0>         0.2763
     19 C12        -3.1557    7.0362   -1.9891 C.2       1 <0>         0.3444
     20 O4         -4.1826    7.6498   -2.2131 O.2       1 <0>        -0.3341
     21 C13        -1.8369    7.6748   -2.1303 C.ar      1 <0>        -0.1730
     22 C14        -1.7032    9.0032   -2.5243 C.ar      1 <0>        -0.0534
     23 C15        -0.4449    9.5548   -2.6412 C.ar      1 <0>        -0.1424
     24 C16         0.6867    8.7973   -2.3690 C.ar      1 <0>        -0.0945
     25 C17         0.5775    7.4817   -1.9783 C.ar      1 <0>        -0.1149
     26 C18        -0.6876    6.8994   -1.8525 C.ar      1 <0>         0.0449
     27 N4         -0.8375    5.6174   -1.4665 N.2       1 <0>        -0.2176
     28 H2          6.8389   -0.0924    1.2565 H         1 <0>         0.0885
     29 H3          6.2530   -0.6025    2.8580 H         1 <0>         0.0929
     30 H4          6.1821   -1.7311    1.4834 H         1 <0>         0.0883
     31 H5          3.9472   -0.7691    1.9613 H         1 <0>         0.0768
     32 H6          4.5331   -0.2590    0.3598 H         1 <0>         0.0719
     33 H7          2.4975    0.0696    0.7094 H         1 <0>         0.1431
     34 H8          0.0187    3.5676    0.9053 H         1 <0>         0.1539
     35 H9          1.8519    4.8014    1.9808 H         1 <0>         0.1513
     36 H10         4.7989    4.2809    1.9109 H         1 <0>         0.2278
     37 H11         0.1235   -0.0721   -0.0587 H         1 <0>         0.1863
     38 H12        -0.1007    3.3888   -0.7719 H         1 <0>         0.2506
     39 H13        -2.5793    9.5977   -2.7374 H         1 <0>         0.1583
     40 H14        -0.3385   10.5852   -2.9467 H         1 <0>         0.1395
     41 H15         1.6645    9.2457   -2.4654 H         1 <0>         0.1372
     42 H16         1.4647    6.9024   -1.7693 H         1 <0>         0.1473
@<TRIPOS>BOND
     1    1    2 1
     2    1   28 1
     3    1   29 1
     4    1   30 1
     5    2    3 1
     6    2   31 1
     7    2   32 1
     8    3    4 1
     9    4    9 ar
    10    4    5 ar
    11    5    6 ar
    12    5   33 1
    13    6    7 ar
    14    6   11 1
    15    7    8 ar
    16    7   34 1
    17    8    9 ar
    18    8   35 1
    19    9   10 1
    20   10   36 1
    21   11   12 2
    22   11   37 1
    23   12   13 1
    24   13   14 am
    25   13   38 1
    26   14   15 2
    27   14   16 1
    28   16   27 2
    29   16   17 1
    30   17   18 1
    31   17   19 am
    32   19   20 2
    33   19   21 1
    34   21   26 ar
    35   21   22 ar
    36   22   23 ar
    37   22   39 1
    38   23   24 ar
    39   23   40 1
    40   24   25 ar
    41   24   41 1
    42   25   26 ar
    43   25   42 1
    44   26   27 1
@<TRIPOS>MOLECULE
ZINC03971030
   42    44     0     0     0
SMALL
USER_CHARGES

@<TRIPOS>ATOM
      1 C1          6.0930   -0.6891    1.7777 C.3       1 <0>        -0.2108
      2 C2          4.6940   -0.1764    1.4296 C.3       1 <0>        -0.0190
      3 O1          4.5767    1.1922    1.8234 O.3       1 <0>        -0.2008
      4 C3          3.3860    1.8039    1.5830 C.ar      1 <0>         0.0765
      5 C4          2.3575    1.1023    0.9831 C.ar      1 <0>        -0.1923
      6 C5          1.1352    1.7341    0.7378 C.ar      1 <0>        -0.0677
      7 C6          0.9610    3.0738    1.0954 C.ar      1 <0>        -0.1626
      8 C7          1.9899    3.7654    1.6987 C.ar      1 <0>        -0.1149
      9 C8          3.2032    3.1377    1.9422 C.ar      1 <0>         0.0508
     10 O2          4.2161    3.8259    2.5320 O.3       1 <0>        -0.2749
     11 C9          0.0350    0.9912    0.0979 C.2       1 <0>        -0.1142
     12 N1         -1.0392    1.6173   -0.2778 N.2       1 <0>         0.0163
     13 N2         -0.9647    2.9578   -0.6781 N.am      1 <0>        -0.3198
     14 C10        -2.0936    3.6497   -0.9299 C.2       1 <0>         0.3733
     15 O3         -3.1764    3.1105   -0.8096 O.2       1 <0>        -0.2730
     16 C11        -2.0149    5.0676   -1.3533 C.ar      1 <0>         0.0852
     17 N3         -3.1812    5.7362   -1.6122 N.ar      1 <0>        -0.2303
     18 H1         -3.9583    8.5800   -2.5040 H         1 <0>         0.2726
     19 C12        -3.1552    7.0323   -2.0019 C.ar      1 <0>         0.2336
     20 O4         -4.1818    7.6441   -2.2317 O.3       1 <0>        -0.1525
     21 C13        -1.8373    7.6769   -2.1234 C.ar      1 <0>        -0.2408
     22 C14        -1.7040    9.0073   -2.5106 C.ar      1 <0>        -0.1084
     23 C15        -0.4463    9.5628   -2.6145 C.ar      1 <0>        -0.1250
     24 C16         0.6851    8.8069   -2.3372 C.ar      1 <0>        -0.0971
     25 C17         0.5766    7.4874   -1.9598 C.ar      1 <0>        -0.1067
     26 C18        -0.6882    6.9031   -1.8404 C.ar      1 <0>         0.0852
     27 N4         -0.8377    5.6189   -1.4616 N.ar      1 <0>        -0.2523
     28 H2          6.8393   -0.0943    1.2511 H         1 <0>         0.0877
     29 H3          6.2537   -0.6051    2.8525 H         1 <0>         0.0922
     30 H4          6.1824   -1.7331    1.4774 H         1 <0>         0.0874
     31 H5          3.9477   -0.7712    1.9562 H         1 <0>         0.0768
     32 H6          4.5333   -0.2604    0.3548 H         1 <0>         0.0718
     33 H7          2.4978    0.0681    0.7050 H         1 <0>         0.1421
     34 H8          0.0192    3.5661    0.9030 H         1 <0>         0.1577
     35 H9          1.8527    4.7994    1.9787 H         1 <0>         0.1489
     36 H10         4.7996    4.2788    1.9079 H         1 <0>         0.2253
     37 H11         0.1236   -0.0731   -0.0626 H         1 <0>         0.1834
     38 H12        -0.1006    3.3881   -0.7742 H         1 <0>         0.2451
     39 H13        -2.5799    9.6004   -2.7281 H         1 <0>         0.1197
     40 H14        -0.3402   10.5949   -2.9143 H         1 <0>         0.1382
     41 H15         1.6625    9.2583   -2.4239 H         1 <0>         0.1401
     42 H16         1.4639    6.9079   -1.7516 H         1 <0>         0.1533
@<TRIPOS>BOND
     1    1    2 1
     2    1   28 1
     3    1   29 1
     4    1   30 1
     5    2    3 1
     6    2   31 1
     7    2   32 1
     8    3    4 1
     9    4    9 ar
    10    4    5 ar
    11    5    6 ar
    12    5   33 1
    13    6    7 ar
    14    6   11 1
    15    7    8 ar
    16    7   34 1
    17    8    9 ar
    18    8   35 1
    19    9   10 1
    20   10   36 1
    21   11   12 2
    22   11   37 1
    23   12   13 1
    24   13   14 am
    25   13   38 1
    26   14   15 2
    27   14   16 1
    28   16   27 ar
    29   16   17 ar
    30   17   19 ar
    31   18   20 1
    32   19   20 1
    33   19   21 ar
    34   21   22 ar
    35   21   26 ar
    36   22   23 ar
    37   22   39 1
    38   23   24 ar
    39   23   40 1
    40   24   25 ar
    41   24   41 1
    42   25   26 ar
    43   25   42 1
    44   26   27 ar
@<TRIPOS>MOLECULE
ZINC03971214
   40    42     0     0     0
SMALL
USER_CHARGES

@<TRIPOS>ATOM
      1 C1          6.1981   -0.6354   -5.2413 C.3       1 <0>        -0.0669
      2 O1          5.5307    0.1477   -4.2496 O.3       1 <0>        -0.2056
      3 C2          4.7065   -0.5106   -3.3974 C.ar      1 <0>         0.1450
      4 C3          4.5470   -1.8752   -3.5162 C.ar      1 <0>        -0.2520
      5 C4          3.7155   -2.5856   -2.6679 C.ar      1 <0>        -0.0359
      6 C5          3.0087   -1.9363   -1.6582 C.ar      1 <0>        -0.1882
      7 C6          3.1554   -0.4876   -1.5136 C.ar      1 <0>         0.0258
      8 C7          4.0177    0.2056   -2.3958 C.ar      1 <0>        -0.0663
      9 C8          4.1671    1.5948   -2.2597 C.ar      1 <0>        -0.0799
     10 C9          3.4858    2.2530   -1.2806 C.ar      1 <0>        -0.1466
     11 C10         2.6419    1.5679   -0.4107 C.ar      1 <0>        -0.0969
     12 C11         2.4741    0.2187   -0.5159 C.ar      1 <0>        -0.1426
     13 C12         2.1290   -2.6901   -0.7604 C.2       1 <0>         0.0424
     14 N1          1.5501   -3.7834   -1.1793 N.2       1 <0>        -0.1803
     15 C13         1.6149   -4.1280   -2.5014 C.ar      1 <0>         0.0708
     16 C14         2.1537   -5.3601   -2.8799 C.ar      1 <0>        -0.1734
     17 C15         2.2162   -5.7008   -4.2150 C.ar      1 <0>        -0.0161
     18 C16         1.7468   -4.8255   -5.1785 C.ar      1 <0>        -0.7890
     19 C17         1.2117   -3.6034   -4.8109 C.ar      1 <0>        -0.0099
     20 C18         1.1428   -3.2494   -3.4797 C.ar      1 <0>        -0.1813
     21 S1          1.8308   -5.2692   -6.8817 S.o2      1 <0>         2.7642
     22 O2          1.7012   -4.0634   -7.6223 O.2       1 <0>        -0.9228
     23 O3          2.9506   -6.1326   -7.0217 O.2       1 <0>        -0.9220
     24 N2          0.4877   -6.1778   -7.2177 N.pl3     1 <0>        -0.9304
     25 H1          6.8200   -1.3861   -4.7536 H         1 <0>         0.0738
     26 H2          5.4591   -1.1297   -5.8719 H         1 <0>         0.0792
     27 H3          6.8243    0.0123   -5.8549 H         1 <0>         0.1131
     28 H4          5.0840   -2.4027   -4.2907 H         1 <0>         0.1439
     29 H5          3.6140   -3.6539   -2.7897 H         1 <0>         0.1521
     30 H6          4.8182    2.1389   -2.9278 H         1 <0>         0.1486
     31 H7          3.6019    3.3219   -1.1779 H         1 <0>         0.1333
     32 H8          2.1127    2.1123    0.3574 H         1 <0>         0.1315
     33 H9          1.8166   -0.3015    0.1649 H         1 <0>         0.1335
     34 H10         1.9595   -2.3415    0.2477 H         1 <0>         0.1685
     35 H11         2.5202   -6.0443   -2.1289 H         1 <0>         0.1502
     36 H12         2.6366   -6.6510   -4.5094 H         1 <0>         0.1514
     37 H13         0.8469   -2.9253   -5.5682 H         1 <0>         0.1561
     38 H14         0.7247   -2.2954   -3.1942 H         1 <0>         0.1492
     39 H15        -0.1585   -6.3651   -6.5189 H         1 <0>         0.2311
     40 H16         0.3471   -6.5227   -8.1133 H         1 <0>         0.2427
@<TRIPOS>BOND
     1    1    2 1
     2    1   25 1
     3    1   26 1
     4    1   27 1
     5    2    3 1
     6    3    8 ar
     7    3    4 ar
     8    4    5 ar
     9    4   28 1
    10    5    6 ar
    11    5   29 1
    12    6    7 ar
    13    6   13 1
    14    7   12 ar
    15    7    8 ar
    16    8    9 ar
    17    9   10 ar
    18    9   30 1
    19   10   11 ar
    20   10   31 1
    21   11   12 ar
    22   11   32 1
    23   12   33 1
    24   13   14 2
    25   13   34 1
    26   14   15 1
    27   15   20 ar
    28   15   16 ar
    29   16   17 ar
    30   16   35 1
    31   17   18 ar
    32   17   36 1
    33   18   19 ar
    34   18   21 1
    35   19   20 ar
    36   19   37 1
    37   20   38 1
    38   21   22 2
    39   21   23 2
    40   21   24 1
    41   24   39 1
    42   24   40 1
@<TRIPOS>MOLECULE
ZINC03971619
   40    42     0     0     0
SMALL
USER_CHARGES

@<TRIPOS>ATOM
      1 C1         -2.9223    0.4143    6.5774 C.3       1 <0>        -0.1297
      2 C2         -1.9785    0.3635    5.4036 C.2       1 <0>        -0.1120
      3 C3         -1.4670    1.4255    4.7379 C.2       1 <0>        -0.1661
      4 C4         -0.6422    0.8768    3.7273 C.2       1 <0>        -0.1823
      5 N1         -0.7097   -0.4343    3.8456 N.pl3     1 <0>        -0.0549
      6 N2         -1.4855   -0.7498    4.8198 N.2       1 <0>        -0.1143
      7 H1         -0.2276   -1.0879    3.2622 H         1 <0>         0.2807
      8 C5          0.1415    1.6298    2.7275 C.2       1 <0>         0.3860
      9 O1          0.1102    2.8458    2.7205 O.2       1 <0>        -0.3065
     10 N3          0.8915    0.9698    1.8230 N.am      1 <0>        -0.3287
     11 N4          1.6305    1.6840    0.8709 N.2       1 <0>         0.0271
     12 C6          2.4208    1.0535    0.0558 C.2       1 <0>        -0.0824
     13 C7          2.4417   -0.4193    0.0419 C.2       1 <0>        -0.2774
     14 C8          3.5751   -1.2438    0.2182 C.2       1 <0>        -0.0443
     15 N5          3.1901   -2.4889    0.1436 N.2       1 <0>        -0.0618
     16 N6          1.8111   -2.5277   -0.0904 N.pl3     1 <0>        -0.0934
     17 C9          1.3535   -1.2564   -0.1526 C.2       1 <0>         0.1002
     18 O2          0.0710   -0.8723   -0.3659 O.3       1 <0>        -0.2602
     19 C10         1.0362   -3.6862   -0.2365 C.ar      1 <0>         0.0552
     20 C11        -0.2654   -3.7179    0.2458 C.ar      1 <0>        -0.1359
     21 C12        -1.0283   -4.8596    0.0962 C.ar      1 <0>        -0.1126
     22 C13        -0.4932   -5.9740   -0.5235 C.ar      1 <0>        -0.1247
     23 C14         0.8045   -5.9472   -1.0006 C.ar      1 <0>        -0.1164
     24 C15         1.5705   -4.8066   -0.8586 C.ar      1 <0>        -0.1130
     25 C16         4.9851   -0.7680    0.4555 C.3       1 <0>        -0.1382
     26 H2         -2.3487    0.4534    7.5034 H         1 <0>         0.0894
     27 H3         -3.5497    1.3023    6.5009 H         1 <0>         0.0873
     28 H4         -3.5511   -0.4760    6.5768 H         1 <0>         0.0910
     29 H5         -1.6499    2.4712    4.9364 H         1 <0>         0.1765
     30 H6          0.9166    0.0001    1.8287 H         1 <0>         0.2104
     31 H7          3.0627    1.6090   -0.6119 H         1 <0>         0.1853
     32 H8         -0.1323   -0.6767   -1.2908 H         1 <0>         0.2535
     33 H9         -0.6823   -2.8493    0.7338 H         1 <0>         0.1463
     34 H10        -2.0422   -4.8834    0.4671 H         1 <0>         0.1414
     35 H11        -1.0900   -6.8671   -0.6354 H         1 <0>         0.1371
     36 H12         1.2194   -6.8189   -1.4845 H         1 <0>         0.1403
     37 H13         2.5838   -4.7862   -1.2314 H         1 <0>         0.1542
     38 H14         5.1585   -0.6655    1.5267 H         1 <0>         0.1009
     39 H15         5.6873   -1.4915    0.0414 H         1 <0>         0.0987
     40 H16         5.1294    0.1973   -0.0299 H         1 <0>         0.0932
@<TRIPOS>BOND
     1    1    2 1
     2    1   26 1
     3    1   27 1
     4    1   28 1
     5    2    3 1
     6    2    6 2
     7    3   29 1
     8    3    4 2
     9    4    8 1
    10    4    5 1
    11    5    7 1
    12    5    6 1
    13    8    9 2
    14    8   10 am
    15   10   11 1
    16   10   30 1
    17   11   12 2
    18   12   13 1
    19   12   31 1
    20   13   17 2
    21   13   14 1
    22   14   15 2
    23   14   25 1
    24   15   16 1
    25   16   17 1
    26   16   19 1
    27   17   18 1
    28   18   32 1
    29   19   24 ar
    30   19   20 ar
    31   20   21 ar
    32   20   33 1
    33   21   22 ar
    34   21   34 1
    35   22   23 ar
    36   22   35 1
    37   23   24 ar
    38   23   36 1
    39   24   37 1
    40   25   38 1
    41   25   39 1
    42   25   40 1
@<TRIPOS>MOLECULE
ZINC03971671
   39    42     0     0     0
SMALL
USER_CHARGES

@<TRIPOS>ATOM
      1 C1          3.8191   -9.5640    5.4984 C.ar      1 <0>        -0.0808
      2 C2          2.7587  -10.3737    5.1587 C.ar      1 <0>        -0.1577
      3 C3          2.0416  -10.1315    3.9928 C.ar      1 <0>         0.0943
      4 C4          2.3873   -9.0690    3.1659 C.ar      1 <0>        -0.1516
      5 C5          3.4425   -8.2496    3.4984 C.ar      1 <0>        -0.0894
      6 C6          4.1682   -8.4885    4.6720 C.ar      1 <0>        -0.0947
      7 C7          5.2949   -7.6184    5.0317 C.2       1 <0>         0.0273
      8 C8          5.5278   -6.4821    4.3253 C.2       1 <0>        -0.3322
      9 C9          6.6978   -5.5841    4.3560 C.2       1 <0>         0.3329
     10 O1          7.6478   -5.8015    5.0853 O.2       1 <0>        -0.3223
     11 N1          6.6700   -4.5352    3.5512 N.am      1 <0>        -0.3244
     12 C10         5.5832   -4.3033    2.7371 C.2       1 <0>        -0.0091
     13 N2          5.3924   -3.3142    1.8865 N.2       1 <0>        -0.1688
     14 N3          6.2935   -2.4020    1.7455 N.2       1 <0>        -0.1652
     15 C11         6.1044   -1.4218    0.9026 C.2       1 <0>         0.0049
     16 C12         4.8324   -1.3152    0.1721 C.ar      1 <0>        -0.1151
     17 C13         4.5803   -0.2042   -0.6398 C.ar      1 <0>        -0.0987
     18 C14         3.3869   -0.1069   -1.3224 C.ar      1 <0>        -0.1284
     19 C15         2.4326   -1.1081   -1.2086 C.ar      1 <0>         0.0202
     20 C16         2.6766   -2.2189   -0.4010 C.ar      1 <0>        -0.0135
     21 C17         3.8704   -2.3241    0.2871 C.ar      1 <0>        -0.0917
     22 O2          1.5930   -3.0474   -0.4605 O.3       1 <0>        -0.2071
     23 C18         0.8578   -2.6352   -1.6277 C.3       1 <0>         0.1062
     24 O3          1.1964   -1.2434   -1.7721 O.3       1 <0>        -0.2085
     25 S1          4.4994   -5.6726    3.1085 S.3       1 <0>         0.3328
     26 O4          0.9997  -10.9362    3.6601 O.3       1 <0>        -0.2898
     27 H1          4.3781   -9.7555    6.4024 H         1 <0>         0.1405
     28 H2          2.4859  -11.2008    5.7973 H         1 <0>         0.1468
     29 H3          1.8269   -8.8857    2.2610 H         1 <0>         0.1492
     30 H4          3.7102   -7.4244    2.8552 H         1 <0>         0.1494
     31 H5          5.9384   -7.8820    5.8580 H         1 <0>         0.1679
     32 H6          7.4208   -3.9213    3.5364 H         1 <0>         0.2652
     33 H7          6.8822   -0.6898    0.7423 H         1 <0>         0.1688
     34 H8          5.3206    0.5768   -0.7320 H         1 <0>         0.1371
     35 H9          3.1941    0.7513   -1.9491 H         1 <0>         0.1431
     36 H10         4.0604   -3.1839    0.9124 H         1 <0>         0.2119
     37 H11        -0.2137   -2.7539   -1.4670 H         1 <0>         0.1295
     38 H12         1.1798   -3.2003   -2.5024 H         1 <0>         0.0870
     39 H13         1.2478  -11.6964    3.1164 H         1 <0>         0.2339
@<TRIPOS>BOND
     1    1    6 ar
     2    1    2 ar
     3    1   27 1
     4    2    3 ar
     5    2   28 1
     6    3    4 ar
     7    3   26 1
     8    4    5 ar
     9    4   29 1
    10    5    6 ar
    11    5   30 1
    12    6    7 1
    13    7    8 2
    14    7   31 1
    15    8   25 1
    16    8    9 1
    17    9   10 2
    18    9   11 am
    19   11   12 1
    20   11   32 1
    21   12   13 2
    22   12   25 1
    23   13   14 1
    24   14   15 2
    25   15   16 1
    26   15   33 1
    27   16   21 ar
    28   16   17 ar
    29   17   18 ar
    30   17   34 1
    31   18   19 ar
    32   18   35 1
    33   19   24 1
    34   19   20 ar
    35   20   21 ar
    36   20   22 1
    37   21   36 1
    38   22   23 1
    39   23   24 1
    40   23   37 1
    41   23   38 1
    42   26   39 1
@<TRIPOS>MOLECULE
ZINC03971672
   39    42     0     0     0
SMALL
USER_CHARGES

@<TRIPOS>ATOM
      1 C1          2.3823    6.3979   -0.7052 C.ar      1 <0>        -0.0828
      2 C2          1.9600    7.7073   -0.6536 C.ar      1 <0>        -0.1593
      3 C3          0.7221    8.0200   -0.1041 C.ar      1 <0>         0.0927
      4 C4         -0.0988    7.0133    0.3908 C.ar      1 <0>        -0.1533
      5 C5          0.3109    5.7000    0.3396 C.ar      1 <0>        -0.0910
      6 C6          1.5571    5.3791   -0.2129 C.ar      1 <0>        -0.0957
      7 C7          1.9995    3.9802   -0.2704 C.2       1 <0>         0.0287
      8 C8          1.0847    2.9769   -0.2395 C.2       1 <0>        -0.3288
      9 C9          1.2955    1.5211   -0.1270 C.2       1 <0>         0.3430
     10 O1          2.4125    1.0444   -0.0445 O.2       1 <0>        -0.3190
     11 N1          0.2159    0.7576   -0.1204 N.am      1 <0>        -0.3011
     12 C10        -1.0395    1.3156   -0.2210 C.2       1 <0>         0.0167
     13 N2         -2.2086    0.7063   -0.2358 N.2       1 <0>        -0.1772
     14 N3         -3.2941    1.3959   -0.3372 N.2       1 <0>        -0.1392
     15 C11        -4.4526    0.7921   -0.3518 C.2       1 <0>         0.0073
     16 C12        -4.5383   -0.6422   -0.0380 C.ar      1 <0>        -0.1154
     17 C13        -3.4120   -1.3265    0.4314 C.ar      1 <0>        -0.0908
     18 C14        -3.4957   -2.6707    0.7245 C.ar      1 <0>        -0.1312
     19 C15        -4.6942   -3.3499    0.5560 C.ar      1 <0>         0.0242
     20 C16        -5.8216   -2.6744    0.0884 C.ar      1 <0>        -0.0106
     21 C17        -5.7478   -1.3255   -0.2024 C.ar      1 <0>        -0.0873
     22 O2         -6.8590   -3.5589    0.0121 O.3       1 <0>        -0.2083
     23 C18        -6.2538   -4.8648    0.0457 C.3       1 <0>         0.1066
     24 O3         -5.0282   -4.6560    0.7717 O.3       1 <0>        -0.2070
     25 S1         -0.6981    3.0650   -0.3242 S.3       1 <0>         0.2568
     26 O4          0.3134    9.3137   -0.0502 O.3       1 <0>        -0.2904
     27 H1          3.3463    6.1566   -1.1280 H         1 <0>         0.1389
     28 H2          2.5939    8.4935   -1.0364 H         1 <0>         0.1455
     29 H3         -1.0596    7.2620    0.8167 H         1 <0>         0.1479
     30 H4         -0.3274    4.9187    0.7251 H         1 <0>         0.1573
     31 H5          3.0524    3.7491   -0.3372 H         1 <0>         0.1646
     32 H6          0.3091   -0.2052   -0.0481 H         1 <0>         0.2555
     33 H7         -5.3473    1.3462   -0.5943 H         1 <0>         0.1726
     34 H8         -2.4773   -0.8019    0.5637 H         1 <0>         0.1908
     35 H9         -2.6251   -3.1975    1.0864 H         1 <0>         0.1439
     36 H10        -6.6213   -0.8006   -0.5599 H         1 <0>         0.1431
     37 H11        -6.0452   -5.2162   -0.9648 H         1 <0>         0.0889
     38 H12        -6.8944   -5.5728    0.5715 H         1 <0>         0.1310
     39 H13         0.5699    9.7738    0.7607 H         1 <0>         0.2328
@<TRIPOS>BOND
     1    1    6 ar
     2    1    2 ar
     3    1   27 1
     4    2    3 ar
     5    2   28 1
     6    3    4 ar
     7    3   26 1
     8    4    5 ar
     9    4   29 1
    10    5    6 ar
    11    5   30 1
    12    6    7 1
    13    7    8 2
    14    7   31 1
    15    8   25 1
    16    8    9 1
    17    9   10 2
    18    9   11 am
    19   11   12 1
    20   11   32 1
    21   12   13 2
    22   12   25 1
    23   13   14 1
    24   14   15 2
    25   15   16 1
    26   15   33 1
    27   16   21 ar
    28   16   17 ar
    29   17   18 ar
    30   17   34 1
    31   18   19 ar
    32   18   35 1
    33   19   24 1
    34   19   20 ar
    35   20   21 ar
    36   20   22 1
    37   21   36 1
    38   22   23 1
    39   23   24 1
    40   23   37 1
    41   23   38 1
    42   26   39 1
@<TRIPOS>MOLECULE
ZINC03971938
   41    43     0     0     0
SMALL
USER_CHARGES

@<TRIPOS>ATOM
      1 C1          5.5358    2.0347   -3.6914 C.3       1 <0>        -0.1336
      2 C2          4.1145    1.5559   -3.5442 C.2       1 <0>        -0.0398
      3 C3          3.6529    0.3428   -3.9066 C.2       1 <0>        -0.2229
      4 C4          2.2790    0.3140   -3.5970 C.2       1 <0>        -0.1741
      5 C5          1.9736    1.5256   -3.0562 C.2       1 <0>         0.0136
      6 O1          3.0966    2.2699   -3.0358 O.3       1 <0>        -0.0475
      7 C6          0.6453    1.9510   -2.5817 C.2       1 <0>        -0.0322
      8 C7          0.3205    3.1687   -2.0445 C.2       1 <0>        -0.1417
      9 C8         -1.0592    3.0959   -1.7566 C.2       1 <0>        -0.1861
     10 N1         -1.4724    1.8941   -2.1089 N.pl3     1 <0>        -0.0563
     11 N2         -0.5003    1.2078   -2.5923 N.2       1 <0>        -0.0946
     12 H1         -2.4113    1.5634   -2.0131 H         1 <0>         0.2822
     13 C9         -1.8860    4.1653   -1.1614 C.2       1 <0>         0.3807
     14 O2         -1.3819    5.2332   -0.8711 O.2       1 <0>        -0.2934
     15 N3         -3.1991    3.9575   -0.9400 N.am      1 <0>        -0.3504
     16 N4         -3.9834    4.9719   -0.3754 N.2       1 <0>         0.0288
     17 C10        -5.2213    4.7373   -0.0629 C.2       1 <0>        -0.1064
     18 C11        -5.7311    3.3545   -0.0591 C.ar      1 <0>        -0.0907
     19 C12        -4.8561    2.2840    0.1474 C.ar      1 <0>        -0.1838
     20 C13        -5.3369    0.9920    0.1508 C.ar      1 <0>        -0.0972
     21 C14        -6.6848    0.7472   -0.0492 C.ar      1 <0>        -0.2013
     22 C15        -7.5639    1.7987   -0.2552 C.ar      1 <0>         0.0831
     23 C16        -7.0946    3.1069   -0.2564 C.ar      1 <0>         0.0662
     24 O3         -7.9548    4.1406   -0.4530 O.3       1 <0>        -0.2710
     25 O4         -8.8867    1.5507   -0.4506 O.3       1 <0>        -0.1943
     26 C17        -9.3002    0.1829   -0.4308 C.3       1 <0>        -0.0669
     27 H2          5.6593    2.5132   -4.6629 H         1 <0>         0.0947
     28 H3          5.7612    2.7518   -2.9020 H         1 <0>         0.0936
     29 H4          6.2150    1.1856   -3.6156 H         1 <0>         0.0976
     30 H5          4.2278   -0.4565   -4.3506 H         1 <0>         0.1561
     31 H6          1.5992   -0.5096   -3.7581 H         1 <0>         0.1649
     32 H7          0.9805    4.0069   -1.8768 H         1 <0>         0.1882
     33 H8         -3.6013    3.1057   -1.1716 H         1 <0>         0.2166
     34 H9         -5.8777    5.5555    0.1944 H         1 <0>         0.2003
     35 H10        -3.8038    2.4692    0.3047 H         1 <0>         0.1495
     36 H11        -4.6588    0.1668    0.3106 H         1 <0>         0.1375
     37 H12        -7.0530   -0.2680   -0.0451 H         1 <0>         0.1444
     38 H13        -8.0104    4.4367   -1.3719 H         1 <0>         0.2312
     39 H14        -9.0599   -0.2553    0.5378 H         1 <0>         0.0722
     40 H15       -10.3756    0.1259   -0.5988 H         1 <0>         0.1159
     41 H16        -8.7803   -0.3653   -1.2166 H         1 <0>         0.0671
@<TRIPOS>BOND
     1    1    2 1
     2    1   27 1
     3    1   28 1
     4    1   29 1
     5    2    6 1
     6    2    3 2
     7    3    4 1
     8    3   30 1
     9    4    5 2
    10    4   31 1
    11    5    6 1
    12    5    7 1
    13    7    8 1
    14    7   11 2
    15    8   32 1
    16    8    9 2
    17    9   13 1
    18    9   10 1
    19   10   12 1
    20   10   11 1
    21   13   14 2
    22   13   15 am
    23   15   16 1
    24   15   33 1
    25   16   17 2
    26   17   18 1
    27   17   34 1
    28   18   23 ar
    29   18   19 ar
    30   19   20 ar
    31   19   35 1
    32   20   21 ar
    33   20   36 1
    34   21   22 ar
    35   21   37 1
    36   22   23 ar
    37   22   25 1
    38   23   24 1
    39   24   38 1
    40   25   26 1
    41   26   39 1
    42   26   40 1
    43   26   41 1
@<TRIPOS>MOLECULE
ZINC03972725
   40    43     0     0     0
SMALL
USER_CHARGES

@<TRIPOS>ATOM
      1 C1         -2.4374    3.6961   -1.1225 C.ar      1 <0>        -0.1380
      2 C2         -3.6401    3.0158   -1.0345 C.ar      1 <0>        -0.1012
      3 C3         -3.6693    1.6990   -0.6155 C.ar      1 <0>        -0.1447
      4 C4         -2.4922    1.0506   -0.2797 C.ar      1 <0>         0.0974
      5 C5         -1.2723    1.7353   -0.3672 C.ar      1 <0>        -0.1267
      6 C6         -1.2567    3.0673   -0.7875 C.ar      1 <0>        -0.1412
      7 C7         -0.0139    1.0556   -0.0120 C.2       1 <0>        -0.1060
      8 N1          1.0010    1.7472    0.4088 N.2       1 <0>         0.0244
      9 N2          0.8400    3.1002    0.7347 N.am      1 <0>        -0.3491
     10 C8          1.9139    3.8483    1.0564 C.2       1 <0>         0.3849
     11 O1          3.0233    3.3486    1.0638 O.2       1 <0>        -0.2979
     12 C9          1.7448    5.2693    1.3986 C.2       1 <0>        -0.1657
     13 C10         2.7412    6.1594    1.7530 C.2       1 <0>        -0.1443
     14 C11         2.0832    7.3822    1.9790 C.2       1 <0>        -0.0745
     15 N3          0.7979    7.1859    1.7730 N.2       1 <0>        -0.0686
     16 N4          0.5708    5.9681    1.4346 N.pl3     1 <0>        -0.1095
     17 H1         -0.3307    5.5878    1.2282 H         1 <0>         0.2814
     18 C12         2.7216    8.6600    2.3826 C.ar      1 <0>         0.0011
     19 C13         4.1094    8.7514    2.4645 C.ar      1 <0>        -0.1091
     20 C14         4.7022    9.9396    2.8402 C.ar      1 <0>        -0.1138
     21 C15         3.9203   11.0458    3.1364 C.ar      1 <0>         0.0084
     22 C16         2.5316   10.9598    3.0556 C.ar      1 <0>         0.0005
     23 C17         1.9342    9.7716    2.6746 C.ar      1 <0>        -0.0910
     24 O2          1.9993   12.1710    3.3928 O.3       1 <0>        -0.2068
     25 C18         3.0841   13.1113    3.2834 C.3       1 <0>         0.1068
     26 O3          4.2565   12.3110    3.5242 O.3       1 <0>        -0.2072
     27 O4         -2.5199   -0.2433    0.1322 O.3       1 <0>        -0.2872
     28 H2         -2.4244    4.7248   -1.4510 H         1 <0>         0.1375
     29 H3         -4.5607    3.5170   -1.2945 H         1 <0>         0.1399
     30 H4         -4.6114    1.1750   -0.5494 H         1 <0>         0.1485
     31 H5         -0.3212    3.6028   -0.8531 H         1 <0>         0.1494
     32 H6          0.0654   -0.0174   -0.1061 H         1 <0>         0.1986
     33 H7         -0.0444    3.4986    0.7287 H         1 <0>         0.2172
     34 H8          3.7992    5.9593    1.8367 H         1 <0>         0.1822
     35 H9          4.7214    7.8919    2.2342 H         1 <0>         0.1445
     36 H10         5.7782   10.0081    2.9034 H         1 <0>         0.1465
     37 H11         0.8584    9.7046    2.6076 H         1 <0>         0.1586
     38 H12         3.1154   13.5454    2.2841 H         1 <0>         0.0885
     39 H13         2.9918   13.8921    4.0384 H         1 <0>         0.1306
     40 H14        -2.5418   -0.3498    1.0931 H         1 <0>         0.2355
@<TRIPOS>BOND
     1    1    6 ar
     2    1    2 ar
     3    1   28 1
     4    2    3 ar
     5    2   29 1
     6    3    4 ar
     7    3   30 1
     8    4    5 ar
     9    4   27 1
    10    5    6 ar
    11    5    7 1
    12    6   31 1
    13    7    8 2
    14    7   32 1
    15    8    9 1
    16    9   10 am
    17    9   33 1
    18   10   11 2
    19   10   12 1
    20   12   16 1
    21   12   13 2
    22   13   14 1
    23   13   34 1
    24   14   15 2
    25   14   18 1
    26   15   16 1
    27   16   17 1
    28   18   23 ar
    29   18   19 ar
    30   19   20 ar
    31   19   35 1
    32   20   21 ar
    33   20   36 1
    34   21   26 1
    35   21   22 ar
    36   22   23 ar
    37   22   24 1
    38   23   37 1
    39   24   25 1
    40   25   26 1
    41   25   38 1
    42   25   39 1
    43   27   40 1
@<TRIPOS>MOLECULE
ZINC03972729
   42    44     0     0     0
SMALL
USER_CHARGES

@<TRIPOS>ATOM
      1 C1          2.1218    6.9771   -1.5112 C.3       1 <0>        -0.2262
      2 C2          1.6764    5.7629   -0.6939 C.3       1 <0>         0.0467
      3 H1          0.7193    5.4023   -1.0710 H         1 <0>         0.1250
      4 C3          1.5295    6.1577    0.7530 C.2       1 <0>         0.2945
      5 O1          2.1967    5.6063    1.6030 O.2       1 <0>        -0.2807
      6 N1          0.6570    7.1235    1.1028 N.am      1 <0>        -0.3477
      7 N2          0.5205    7.4906    2.4479 N.2       1 <0>         0.0282
      8 C4         -0.3938    8.3426    2.7986 C.2       1 <0>        -0.1111
      9 C5         -1.4463    8.7294    1.8422 C.ar      1 <0>        -0.0878
     10 C6         -1.8130    7.8598    0.8126 C.ar      1 <0>        -0.1715
     11 C7         -2.8054    8.2274   -0.0782 C.ar      1 <0>         0.0915
     12 C8         -3.4288    9.4626    0.0423 C.ar      1 <0>        -0.1979
     13 C9         -3.0678   10.3305    1.0551 C.ar      1 <0>        -0.1060
     14 C10        -2.0799    9.9738    1.9579 C.ar      1 <0>         0.0556
     15 O2         -1.7257   10.8286    2.9531 O.3       1 <0>        -0.2846
     16 O3         -3.1676    7.3796   -1.0779 O.3       1 <0>        -0.2141
     17 C11        -4.1948    7.8248   -1.9659 C.3       1 <0>        -0.0639
     18 N3          2.6788    4.7010   -0.8110 N.pl3     1 <0>        -0.1837
     19 C12         2.4825    3.4361   -1.3120 C.ar      1 <0>        -0.0191
     20 C13         1.3833    2.7640   -1.8358 C.ar      1 <0>        -0.1435
     21 C14         1.5162    1.4717   -2.2604 C.ar      1 <0>        -0.0867
     22 C15         2.7407    0.8218   -2.1737 C.ar      1 <0>        -0.1581
     23 C16         3.8340    1.4588   -1.6639 C.ar      1 <0>        -0.0445
     24 C17         3.7245    2.7840   -1.2216 C.ar      1 <0>        -0.1157
     25 N4          4.6043    3.6523   -0.6841 N.2       1 <0>        -0.0723
     26 N5          4.0281    4.7750   -0.4343 N.2       1 <0>         0.0693
     27 H2          3.0788    7.3377   -1.1341 H         1 <0>         0.1139
     28 H3          2.2280    6.6915   -2.5578 H         1 <0>         0.0966
     29 H4          1.3760    7.7672   -1.4241 H         1 <0>         0.0828
     30 H5          0.1235    7.5645    0.4232 H         1 <0>         0.2275
     31 H6         -0.3833    8.7681    3.7912 H         1 <0>         0.1994
     32 H7         -1.3258    6.9009    0.7147 H         1 <0>         0.1609
     33 H8         -4.1998    9.7461   -0.6589 H         1 <0>         0.1429
     34 H9         -3.5568   11.2895    1.1427 H         1 <0>         0.1480
     35 H10        -0.9630   11.3841    2.7415 H         1 <0>         0.2303
     36 H11        -4.3868    7.0558   -2.7141 H         1 <0>         0.1132
     37 H12        -5.1064    8.0166   -1.3999 H         1 <0>         0.0736
     38 H13        -3.8749    8.7417   -2.4610 H         1 <0>         0.0687
     39 H14         0.4286    3.2632   -1.9110 H         1 <0>         0.1283
     40 H15         0.6617    0.9514   -2.6672 H         1 <0>         0.1348
     41 H16         2.8284   -0.1994   -2.5141 H         1 <0>         0.1368
     42 H17         4.7809    0.9433   -1.6010 H         1 <0>         0.1465
@<TRIPOS>BOND
     1    1    2 1
     2    1   27 1
     3    1   28 1
     4    1   29 1
     5    2    3 1
     6    2    4 1
     7    2   18 1
     8    4    5 2
     9    4    6 am
    10    6    7 1
    11    6   30 1
    12    7    8 2
    13    8    9 1
    14    8   31 1
    15    9   14 ar
    16    9   10 ar
    17   10   11 ar
    18   10   32 1
    19   11   12 ar
    20   11   16 1
    21   12   13 ar
    22   12   33 1
    23   13   14 ar
    24   13   34 1
    25   14   15 1
    26   15   35 1
    27   16   17 1
    28   17   36 1
    29   17   37 1
    30   17   38 1
    31   18   26 1
    32   18   19 1
    33   19   24 ar
    34   19   20 ar
    35   20   21 ar
    36   20   39 1
    37   21   22 ar
    38   21   40 1
    39   22   23 ar
    40   22   41 1
    41   23   24 ar
    42   23   42 1
    43   24   25 1
    44   25   26 2
@<TRIPOS>MOLECULE
ZINC03973678
   44    46     0     0     0
SMALL
USER_CHARGES

@<TRIPOS>ATOM
      1 C1         14.3712   -5.5417    6.7434 C.3       1 <0>        -0.0670
      2 O1         14.1742   -4.1540    6.4652 O.3       1 <0>        -0.1961
      3 C2         12.9292   -3.7739    6.0713 C.ar      1 <0>         0.0774
      4 C3         11.9235   -4.7152    5.9560 C.ar      1 <0>        -0.1900
      5 C4         10.6456   -4.3212    5.5510 C.ar      1 <0>        -0.0686
      6 C5         10.3920   -2.9786    5.2590 C.ar      1 <0>        -0.1772
      7 C6         11.3989   -2.0444    5.3819 C.ar      1 <0>        -0.1152
      8 C7         12.6675   -2.4360    5.7845 C.ar      1 <0>         0.0570
      9 O2         13.6578   -1.5118    5.8990 O.3       1 <0>        -0.2735
     10 C8          9.5690   -5.3206    5.4262 C.2       1 <0>        -0.1081
     11 N1          8.4707   -5.0172    4.8049 N.2       1 <0>         0.0176
     12 N2          8.4555   -3.9613    3.8842 N.am      1 <0>        -0.3382
     13 C9          7.2916   -3.5659    3.3315 C.2       1 <0>         0.3019
     14 O3          6.2571   -4.1242    3.6312 O.2       1 <0>        -0.3268
     15 C10         7.2752   -2.4302    2.3410 C.3       1 <0>        -0.0253
     16 N3          5.9013   -2.1952    1.8901 N.am      1 <0>        -0.3782
     17 C11         5.6429   -1.2203    0.9961 C.2       1 <0>         0.3559
     18 O4          6.5501   -0.5358    0.5638 O.2       1 <0>        -0.3739
     19 C12         4.2586   -0.9835    0.5418 C.ar      1 <0>        -0.1285
     20 C13         3.2150   -1.7690    1.0374 C.ar      1 <0>        -0.0961
     21 C14         1.9235   -1.5463    0.6125 C.ar      1 <0>        -0.1241
     22 C15         1.6539   -0.5425   -0.3082 C.ar      1 <0>         0.0295
     23 C16         2.6919    0.2456   -0.8069 C.ar      1 <0>        -0.0096
     24 C17         3.9887    0.0269   -0.3846 C.ar      1 <0>        -0.0528
     25 O5          2.1684    1.1494   -1.6863 O.3       1 <0>        -0.2033
     26 C18         0.7552    1.1771   -1.4121 C.3       1 <0>         0.1063
     27 O6          0.4843   -0.1313   -0.8761 O.3       1 <0>        -0.2048
     28 H1         15.4050   -5.7083    7.0462 H         1 <0>         0.1148
     29 H2         13.7029   -5.8496    7.5475 H         1 <0>         0.0714
     30 H3         14.1562   -6.1257    5.8485 H         1 <0>         0.0668
     31 H4         12.1249   -5.7526    6.1787 H         1 <0>         0.1444
     32 H5          9.4065   -2.6717    4.9412 H         1 <0>         0.1524
     33 H6         11.2006   -1.0063    5.1599 H         1 <0>         0.1509
     34 H7         14.1694   -1.3811    5.0889 H         1 <0>         0.2292
     35 H8          9.6943   -6.3053    5.8519 H         1 <0>         0.1858
     36 H9          9.2826   -3.5149    3.6445 H         1 <0>         0.2333
     37 H10         7.8999   -2.6855    1.4851 H         1 <0>         0.1152
     38 H11         7.6610   -1.5282    2.8162 H         1 <0>         0.1116
     39 H12         5.1776   -2.7413    2.2350 H         1 <0>         0.2492
     40 H13         3.4206   -2.5509    1.7533 H         1 <0>         0.1436
     41 H14         1.1180   -2.1543    0.9972 H         1 <0>         0.1490
     42 H15         4.7929    0.6360   -0.7702 H         1 <0>         0.1696
     43 H16         0.1902    1.3393   -2.3301 H         1 <0>         0.1333
     44 H17         0.5228    1.9477   -0.6771 H         1 <0>         0.0910
@<TRIPOS>BOND
     1    1    2 1
     2    1   28 1
     3    1   29 1
     4    1   30 1
     5    2    3 1
     6    3    8 ar
     7    3    4 ar
     8    4    5 ar
     9    4   31 1
    10    5    6 ar
    11    5   10 1
    12    6    7 ar
    13    6   32 1
    14    7    8 ar
    15    7   33 1
    16    8    9 1
    17    9   34 1
    18   10   11 2
    19   10   35 1
    20   11   12 1
    21   12   13 am
    22   12   36 1
    23   13   14 2
    24   13   15 1
    25   15   16 1
    26   15   37 1
    27   15   38 1
    28   16   17 am
    29   16   39 1
    30   17   18 2
    31   17   19 1
    32   19   24 ar
    33   19   20 ar
    34   20   21 ar
    35   20   40 1
    36   21   22 ar
    37   21   41 1
    38   22   27 1
    39   22   23 ar
    40   23   24 ar
    41   23   25 1
    42   24   42 1
    43   25   26 1
    44   26   27 1
    45   26   43 1
    46   26   44 1
@<TRIPOS>MOLECULE
ZINC03974315
   43    45     0     0     0
SMALL
USER_CHARGES

@<TRIPOS>ATOM
      1 C1         -0.6871    6.6506   -1.8564 C.3       1 <0>        -0.1689
      2 C2         -1.6874    6.7734   -0.7360 C.ar      1 <0>        -0.0182
      3 C3         -2.8512    6.0229   -0.7728 C.ar      1 <0>         0.0108
      4 C4         -3.7732    6.1490    0.2803 C.ar      1 <0>        -0.0906
      5 C5         -3.4694    7.0379    1.3196 C.ar      1 <0>        -0.1157
      6 C6         -2.2838    7.7402    1.2746 C.ar      1 <0>        -0.0231
      7 N1         -1.4437    7.5936    0.2675 N.ar      1 <0>        -0.1514
      8 C7         -4.4222    7.2197    2.4730 C.3       1 <0>         0.0420
      9 O1         -3.8830    8.1735    3.3904 O.3       1 <0>        -0.3566
     10 C8         -5.0262    5.3733    0.2880 C.2       1 <0>        -0.1438
     11 N2         -4.9887    4.0788    0.1965 N.2       1 <0>         0.0514
     12 N3         -3.7581    3.4099    0.2242 N.am      1 <0>        -0.3217
     13 C9         -3.7096    2.0791    0.0169 C.2       1 <0>         0.3612
     14 O2         -4.7204    1.4733   -0.2839 O.2       1 <0>        -0.3061
     15 C10        -2.4305    1.3571    0.1548 C.ar      1 <0>        -0.1457
     16 C11        -1.2616    2.0651    0.3850 C.ar      1 <0>        -0.0710
     17 C12        -0.0485    1.3738    0.5104 C.ar      1 <0>        -0.0580
     18 C13         1.1579    2.0607    0.7397 C.ar      1 <0>        -0.1066
     19 C14         2.3186    1.3614    0.8622 C.ar      1 <0>        -0.1298
     20 C15         2.3321   -0.0291    0.7648 C.ar      1 <0>        -0.1116
     21 C16         1.1854   -0.7279    0.5436 C.ar      1 <0>        -0.1232
     22 C17        -0.0344   -0.0417    0.4109 C.ar      1 <0>        -0.0043
     23 C18        -1.2338   -0.7364    0.1826 C.ar      1 <0>        -0.1593
     24 C19        -2.4058   -0.0504    0.0575 C.ar      1 <0>         0.1277
     25 O3         -3.5606   -0.7286   -0.1635 O.3       1 <0>        -0.2684
     26 O4         -3.0971    5.1800   -1.8092 O.3       1 <0>        -0.2790
     27 H1         -0.9193    7.3800   -2.6324 H         1 <0>         0.0933
     28 H2          0.3152    6.8371   -1.4707 H         1 <0>         0.1033
     29 H3         -0.7335    5.6459   -2.2765 H         1 <0>         0.0981
     30 H4         -2.0409    8.4245    2.0740 H         1 <0>         0.1893
     31 H5         -5.3815    7.5775    2.0989 H         1 <0>         0.0747
     32 H6         -4.5633    6.2660    2.9815 H         1 <0>         0.0796
     33 H7         -4.4448    8.3406    4.1595 H         1 <0>         0.2214
     34 H8         -5.9755    5.8816    0.3698 H         1 <0>         0.1853
     35 H9         -2.9408    3.9046    0.3925 H         1 <0>         0.2219
     36 H10        -1.2839    3.1423    0.4595 H         1 <0>         0.1346
     37 H11         1.1627    3.1379    0.8174 H         1 <0>         0.1344
     38 H12         3.2431    1.8915    1.0375 H         1 <0>         0.1316
     39 H13         3.2671   -0.5601    0.8662 H         1 <0>         0.1312
     40 H14         1.2124   -1.8050    0.4699 H         1 <0>         0.1367
     41 H15        -1.2278   -1.8137    0.1064 H         1 <0>         0.1489
     42 H16        -4.0251   -0.9880    0.6440 H         1 <0>         0.2371
     43 H17        -3.5075    5.6062   -2.5740 H         1 <0>         0.2387
@<TRIPOS>BOND
     1    1    2 1
     2    1   27 1
     3    1   28 1
     4    1   29 1
     5    2    7 ar
     6    2    3 ar
     7    3    4 ar
     8    3   26 1
     9    4    5 ar
    10    4   10 1
    11    5    6 ar
    12    5    8 1
    13    6    7 ar
    14    6   30 1
    15    8    9 1
    16    8   31 1
    17    8   32 1
    18    9   33 1
    19   10   11 2
    20   10   34 1
    21   11   12 1
    22   12   13 am
    23   12   35 1
    24   13   14 2
    25   13   15 1
    26   15   24 ar
    27   15   16 ar
    28   16   17 ar
    29   16   36 1
    30   17   22 ar
    31   17   18 ar
    32   18   19 ar
    33   18   37 1
    34   19   20 ar
    35   19   38 1
    36   20   21 ar
    37   20   39 1
    38   21   22 ar
    39   21   40 1
    40   22   23 ar
    41   23   24 ar
    42   23   41 1
    43   24   25 1
    44   25   42 1
    45   26   43 1
@<TRIPOS>MOLECULE
ZINC03974943
   38    40     0     0     0
SMALL
USER_CHARGES

@<TRIPOS>ATOM
      1 C1         -0.1716   -8.9616   -0.7664 C.3       1 <0>        -0.0674
      2 O1          1.0061   -8.1776   -0.5646 O.3       1 <0>        -0.1954
      3 C2          0.8322   -6.8457   -0.3516 C.ar      1 <0>         0.0796
      4 C3         -0.4415   -6.3086   -0.3377 C.ar      1 <0>        -0.1902
      5 C4         -0.6163   -4.9397   -0.1185 C.ar      1 <0>        -0.0643
      6 C5          0.4974   -4.1197    0.0800 C.ar      1 <0>        -0.1860
      7 C6          1.7645   -4.6638    0.0705 C.ar      1 <0>        -0.1190
      8 C7          1.9376   -6.0229   -0.1470 C.ar      1 <0>         0.0566
      9 O2          3.1893   -6.5532   -0.1612 O.3       1 <0>        -0.2721
     10 C8         -1.9722   -4.3611   -0.1031 C.2       1 <0>        -0.1122
     11 N1         -2.1294   -3.0742   -0.1671 N.2       1 <0>         0.0280
     12 N2         -1.1104   -2.2693   -0.6929 N.am      1 <0>        -0.3452
     13 C9         -1.2205   -0.9268   -0.6468 C.2       1 <0>         0.3792
     14 O3         -2.2044   -0.4142   -0.1486 O.2       1 <0>        -0.2915
     15 C10        -0.1462   -0.0782   -1.2011 C.2       1 <0>        -0.1870
     16 C11        -0.1234    1.3327   -1.2233 C.2       1 <0>        -0.1398
     17 C12         1.0585    1.6684   -1.8293 C.2       1 <0>        -0.0340
     18 N3          1.6874    0.4969   -2.1406 N.2       1 <0>        -0.0921
     19 H1          1.2189   -1.4601   -1.8861 H         1 <0>         0.2824
     20 N4          0.9684   -0.4994   -1.7661 N.pl3     1 <0>        -0.0560
     21 C13         1.5551    3.0300   -2.0940 C.2       1 <0>         0.0168
     22 C14         2.7330    3.3479   -2.6983 C.2       1 <0>        -0.1778
     23 C15         2.7988    4.7543   -2.7438 C.2       1 <0>        -0.2229
     24 C16         1.6716    5.2216   -2.1719 C.2       1 <0>        -0.0906
     25 O4          0.9200    4.1775   -1.7853 O.3       1 <0>        -0.0483
     26 H2         -0.8129   -8.8866    0.1118 H         1 <0>         0.0723
     27 H3         -0.7081   -8.5927   -1.6406 H         1 <0>         0.0670
     28 H4          0.1079  -10.0032   -0.9244 H         1 <0>         0.1159
     29 H5         -1.2993   -6.9455   -0.4953 H         1 <0>         0.1458
     30 H6          0.3657   -3.0606    0.2453 H         1 <0>         0.1512
     31 H7          2.6243   -4.0296    0.2286 H         1 <0>         0.1497
     32 H8          3.6035   -6.5604   -1.0349 H         1 <0>         0.2288
     33 H9         -2.8345   -5.0081   -0.0386 H         1 <0>         0.1876
     34 H10        -0.3257   -2.6782   -1.0903 H         1 <0>         0.2182
     35 H11        -0.8779    2.0054   -0.8431 H         1 <0>         0.1887
     36 H12         3.4736    2.6556   -3.0708 H         1 <0>         0.1664
     37 H13         3.6014    5.3463   -3.1582 H         1 <0>         0.1571
     38 H14         1.4135    6.2629   -2.0482 H         1 <0>         0.2002
@<TRIPOS>BOND
     1    1    2 1
     2    1   26 1
     3    1   27 1
     4    1   28 1
     5    2    3 1
     6    3    8 ar
     7    3    4 ar
     8    4    5 ar
     9    4   29 1
    10    5    6 ar
    11    5   10 1
    12    6    7 ar
    13    6   30 1
    14    7    8 ar
    15    7   31 1
    16    8    9 1
    17    9   32 1
    18   10   11 2
    19   10   33 1
    20   11   12 1
    21   12   13 am
    22   12   34 1
    23   13   14 2
    24   13   15 1
    25   15   16 2
    26   15   20 1
    27   16   35 1
    28   16   17 1
    29   17   21 1
    30   17   18 2
    31   18   20 1
    32   19   20 1
    33   21   25 1
    34   21   22 2
    35   22   23 1
    36   22   36 1
    37   23   24 2
    38   23   37 1
    39   24   25 1
    40   24   38 1
@<TRIPOS>MOLECULE
ZINC03974949
   38    40     0     0     0
SMALL
USER_CHARGES

@<TRIPOS>ATOM
      1 C1          2.3679   -8.6590   -0.5631 C.3       1 <0>        -0.0670
      2 O1          1.0224   -8.1776   -0.5637 O.3       1 <0>        -0.1943
      3 C2          0.8430   -6.8463   -0.3513 C.ar      1 <0>         0.0832
      4 C3          1.9394   -6.0230   -0.1471 C.ar      1 <0>        -0.2010
      5 C4          1.7645   -4.6672    0.0701 C.ar      1 <0>        -0.0974
      6 C5          0.4978   -4.1224    0.0858 C.ar      1 <0>        -0.1838
      7 C6         -0.6168   -4.9402   -0.1186 C.ar      1 <0>        -0.0908
      8 C7         -0.4398   -6.3125   -0.3330 C.ar      1 <0>         0.0661
      9 O2         -1.5173   -7.1178   -0.5274 O.3       1 <0>        -0.2709
     10 C8         -1.9723   -4.3619   -0.1026 C.2       1 <0>        -0.1061
     11 N1         -2.1477   -3.1105   -0.3997 N.2       1 <0>         0.0288
     12 N2         -1.1009   -2.3718   -0.9665 N.am      1 <0>        -0.3503
     13 C9         -1.2447   -1.0475   -1.1718 C.2       1 <0>         0.3805
     14 O3         -2.2832   -0.4939   -0.8651 O.2       1 <0>        -0.2930
     15 C10        -0.1412   -0.2686   -1.7694 C.2       1 <0>        -0.1857
     16 C11        -0.1476    1.1161   -2.0419 C.2       1 <0>        -0.1407
     17 C12         1.0795    1.3856   -2.5883 C.2       1 <0>        -0.0346
     18 N3          1.7611    0.2029   -2.6264 N.2       1 <0>        -0.0936
     19 H1          1.3141   -1.6951   -2.0685 H         1 <0>         0.2826
     20 N4          1.0319   -0.7389   -2.1460 N.pl3     1 <0>        -0.0558
     21 C13         1.5689    2.6976   -3.0462 C.2       1 <0>         0.0175
     22 C14         2.7922    2.9496   -3.5882 C.2       1 <0>        -0.1785
     23 C15         2.8310    4.3275   -3.8786 C.2       1 <0>        -0.2230
     24 C16         1.6439    4.8440   -3.5042 C.2       1 <0>        -0.0908
     25 O4          0.8819    3.8559   -3.0068 O.3       1 <0>        -0.0481
     26 H2          2.8274   -8.4520    0.4033 H         1 <0>         0.0723
     27 H3          2.3693   -9.7341   -0.7433 H         1 <0>         0.1160
     28 H4          2.9334   -8.1582   -1.3490 H         1 <0>         0.0671
     29 H5          2.9350   -6.4414   -0.1579 H         1 <0>         0.1445
     30 H6          2.6243   -4.0331    0.2284 H         1 <0>         0.1375
     31 H7          0.3672   -3.0641    0.2565 H         1 <0>         0.1494
     32 H8         -1.8252   -7.1484   -1.4435 H         1 <0>         0.2312
     33 H9         -2.8197   -4.9794    0.1562 H         1 <0>         0.2004
     34 H10        -0.2726   -2.8133   -1.2111 H         1 <0>         0.2165
     35 H11        -0.9501    1.8154   -1.8585 H         1 <0>         0.1886
     36 H12         3.5802    2.2318   -3.7623 H         1 <0>         0.1661
     37 H13         3.6564    4.8680   -4.3178 H         1 <0>         0.1569
     38 H14         1.3519    5.8799   -3.5933 H         1 <0>         0.2001
@<TRIPOS>BOND
     1    1    2 1
     2    1   26 1
     3    1   27 1
     4    1   28 1
     5    2    3 1
     6    3    8 ar
     7    3    4 ar
     8    4    5 ar
     9    4   29 1
    10    5    6 ar
    11    5   30 1
    12    6    7 ar
    13    6   31 1
    14    7    8 ar
    15    7   10 1
    16    8    9 1
    17    9   32 1
    18   10   11 2
    19   10   33 1
    20   11   12 1
    21   12   13 am
    22   12   34 1
    23   13   14 2
    24   13   15 1
    25   15   16 2
    26   15   20 1
    27   16   35 1
    28   16   17 1
    29   17   21 1
    30   17   18 2
    31   18   20 1
    32   19   20 1
    33   21   25 1
    34   21   22 2
    35   22   23 1
    36   22   36 1
    37   23   24 2
    38   23   37 1
    39   24   25 1
    40   24   38 1
@<TRIPOS>MOLECULE
ZINC03974950
   38    40     0     0     0
SMALL
USER_CHARGES

@<TRIPOS>ATOM
      1 C1          2.2377   12.0824    0.7474 C.3       1 <0>        -0.0673
      2 O1          3.0785   10.9478    0.5293 O.3       1 <0>        -0.1954
      3 C2          2.4623    9.7526    0.3260 C.ar      1 <0>         0.0795
      4 C3          1.0822    9.6760    0.3367 C.ar      1 <0>        -0.1901
      5 C4          0.4524    8.4462    0.1276 C.ar      1 <0>        -0.0644
      6 C5          1.2211    7.2990   -0.0856 C.ar      1 <0>        -0.1858
      7 C6          2.5972    7.3844   -0.1006 C.ar      1 <0>        -0.1189
      8 C7          3.2222    8.6056    0.1066 C.ar      1 <0>         0.0567
      9 O2          4.5792    8.6831    0.0960 O.3       1 <0>        -0.2721
     10 C8         -1.0190    8.3585    0.1378 C.2       1 <0>        -0.1122
     11 N1         -1.5996    7.1997    0.2112 N.2       1 <0>         0.0278
     12 N2         -0.9024    6.0981    0.7241 N.am      1 <0>        -0.3451
     13 C9         -1.4592    4.8713    0.6867 C.2       1 <0>         0.3793
     14 O3         -2.5668    4.7207    0.2078 O.2       1 <0>        -0.2924
     15 C10        -0.7241    3.7099    1.2274 C.2       1 <0>        -0.1847
     16 C11        -1.1753    2.3726    1.2515 C.2       1 <0>        -0.1471
     17 C12        -0.1672    1.6588    1.8434 C.2       1 <0>        -0.0276
     18 N3          0.8206    2.5509    2.1468 N.2       1 <0>        -0.0950
     19 H1          1.0325    4.5524    1.8956 H         1 <0>         0.2811
     20 N4          0.4732    3.7316    1.7794 N.pl3     1 <0>        -0.0561
     21 C13        -0.1519    0.2080    2.1026 C.2       1 <0>        -0.1920
     22 C14         0.8288   -0.5560    2.6808 C.2       1 <0>        -0.1528
     23 C15         0.6166   -1.9097    2.8198 C.2       1 <0>        -0.1758
     24 C16        -0.5521   -2.4449    2.3821 C.2       1 <0>        -0.3091
     25 S1         -1.4087   -1.0108    1.7525 S.3       1 <0>         0.3532
     26 H2          2.8545   12.9687    0.8953 H         1 <0>         0.1158
     27 H3          1.5930   12.2288   -0.1192 H         1 <0>         0.0723
     28 H4          1.6240   11.9149    1.6326 H         1 <0>         0.0670
     29 H5          0.4921   10.5645    0.5060 H         1 <0>         0.1458
     30 H6          0.7373    6.3463   -0.2428 H         1 <0>         0.1514
     31 H7          3.1902    6.4978   -0.2700 H         1 <0>         0.1497
     32 H8          4.9876    8.5497    0.9623 H         1 <0>         0.2289
     33 H9         -1.6141    9.2582    0.0844 H         1 <0>         0.1875
     34 H10        -0.0189    6.2183    1.1061 H         1 <0>         0.2184
     35 H11        -2.1161    1.9927    0.8816 H         1 <0>         0.1849
     36 H12         1.7496   -0.1053    3.0203 H         1 <0>         0.1536
     37 H13         1.3705   -2.5377    3.2710 H         1 <0>         0.1435
     38 H14        -0.8809   -3.4733    2.4116 H         1 <0>         0.1878
@<TRIPOS>BOND
     1    1    2 1
     2    1   26 1
     3    1   27 1
     4    1   28 1
     5    2    3 1
     6    3    8 ar
     7    3    4 ar
     8    4    5 ar
     9    4   29 1
    10    5    6 ar
    11    5   10 1
    12    6    7 ar
    13    6   30 1
    14    7    8 ar
    15    7   31 1
    16    8    9 1
    17    9   32 1
    18   10   11 2
    19   10   33 1
    20   11   12 1
    21   12   13 am
    22   12   34 1
    23   13   14 2
    24   13   15 1
    25   15   16 2
    26   15   20 1
    27   16   35 1
    28   16   17 1
    29   17   21 1
    30   17   18 2
    31   18   20 1
    32   19   20 1
    33   21   25 1
    34   21   22 2
    35   22   23 1
    36   22   36 1
    37   23   24 2
    38   23   37 1
    39   24   25 1
    40   24   38 1
@<TRIPOS>MOLECULE
ZINC03974952
   38    40     0     0     0
SMALL
USER_CHARGES

@<TRIPOS>ATOM
      1 C1          4.5198   10.9417    0.5020 C.3       1 <0>        -0.0669
      2 O1          3.0910   10.9411    0.5275 O.3       1 <0>        -0.1943
      3 C2          2.4704    9.7479    0.3251 C.ar      1 <0>         0.0830
      4 C3          3.2222    8.6038    0.1070 C.ar      1 <0>        -0.2009
      5 C4          2.5977    7.3862   -0.1001 C.ar      1 <0>        -0.0973
      6 C5          1.2214    7.2993   -0.0919 C.ar      1 <0>        -0.1836
      7 C6          0.4507    8.4442    0.1268 C.ar      1 <0>        -0.0910
      8 C7          1.0827    9.6769    0.3309 C.ar      1 <0>         0.0660
      9 O2          0.3426   10.7976    0.5389 O.3       1 <0>        -0.2710
     10 C8         -1.0205    8.3558    0.1363 C.2       1 <0>        -0.1060
     11 N1         -1.6014    7.2362    0.4428 N.2       1 <0>         0.0286
     12 N2         -0.8545    6.1879    0.9960 N.am      1 <0>        -0.3502
     13 C9         -1.4318    4.9891    1.2107 C.2       1 <0>         0.3805
     14 O3         -2.6012    4.8174    0.9243 O.2       1 <0>        -0.2939
     15 C10        -0.6444    3.8839    1.7938 C.2       1 <0>        -0.1832
     16 C11        -1.1099    2.5800    2.0682 C.2       1 <0>        -0.1481
     17 C12        -0.0372    1.9147    2.6000 C.2       1 <0>        -0.0282
     18 N3          1.0003    2.8016    2.6297 N.2       1 <0>        -0.0964
     19 H1          1.2064    4.7421    2.0764 H         1 <0>         0.2813
     20 N4          0.6221    3.9346    2.1573 N.pl3     1 <0>        -0.0560
     21 C13        -0.0084    0.5124    3.0527 C.2       1 <0>        -0.1913
     22 C14         1.0343   -0.2035    3.5816 C.2       1 <0>        -0.1536
     23 C15         0.8219   -1.5172    3.9363 C.2       1 <0>        -0.1759
     24 C16        -0.4084   -2.0619    3.7524 C.2       1 <0>        -0.3095
     25 S1         -1.3245   -0.6940    3.0621 S.3       1 <0>         0.3533
     26 H2          4.8858   11.9535    0.6764 H         1 <0>         0.1159
     27 H3          4.8974   10.2793    1.2810 H         1 <0>         0.0671
     28 H4          4.8659   10.5927   -0.4709 H         1 <0>         0.0723
     29 H5          4.3005    8.6629    0.0990 H         1 <0>         0.1445
     30 H6          3.1911    6.4998   -0.2693 H         1 <0>         0.1376
     31 H7          0.7394    6.3467   -0.2548 H         1 <0>         0.1496
     32 H8          0.0788   10.9296    1.4599 H         1 <0>         0.2312
     33 H9         -1.6151    9.2226   -0.1116 H         1 <0>         0.2004
     34 H10         0.0782    6.3248    1.2245 H         1 <0>         0.2167
     35 H11        -2.1019    2.1895    1.8955 H         1 <0>         0.1849
     36 H12         2.0034    0.2536    3.7172 H         1 <0>         0.1534
     37 H13         1.6238   -2.1070    4.3551 H         1 <0>         0.1432
     38 H14        -0.7468   -3.0638    3.9717 H         1 <0>         0.1877
@<TRIPOS>BOND
     1    1    2 1
     2    1   26 1
     3    1   27 1
     4    1   28 1
     5    2    3 1
     6    3    8 ar
     7    3    4 ar
     8    4    5 ar
     9    4   29 1
    10    5    6 ar
    11    5   30 1
    12    6    7 ar
    13    6   31 1
    14    7    8 ar
    15    7   10 1
    16    8    9 1
    17    9   32 1
    18   10   11 2
    19   10   33 1
    20   11   12 1
    21   12   13 am
    22   12   34 1
    23   13   14 2
    24   13   15 1
    25   15   16 2
    26   15   20 1
    27   16   35 1
    28   16   17 1
    29   17   21 1
    30   17   18 2
    31   18   20 1
    32   19   20 1
    33   21   25 1
    34   21   22 2
    35   22   23 1
    36   22   36 1
    37   23   24 2
    38   23   37 1
    39   24   25 1
    40   24   38 1
@<TRIPOS>MOLECULE
ZINC03974995
   41    43     0     0     0
SMALL
USER_CHARGES

@<TRIPOS>ATOM
      1 C1          5.9471    1.9865   -2.0662 C.3       1 <0>        -0.1336
      2 C2          4.5115    1.5534   -2.2165 C.2       1 <0>        -0.0397
      3 C3          4.0932    0.4018   -2.7778 C.2       1 <0>        -0.2228
      4 C4          2.6859    0.3978   -2.7128 C.2       1 <0>        -0.1734
      5 C5          2.3181    1.5609   -2.1083 C.2       1 <0>         0.0130
      6 O1          3.4367    2.2536   -1.8179 O.3       1 <0>        -0.0477
      7 C6          0.9373    1.9902   -1.8264 C.2       1 <0>        -0.0317
      8 C7          0.5510    3.1609   -1.2289 C.2       1 <0>        -0.1408
      9 C8         -0.8590    3.1157   -1.1914 C.2       1 <0>        -0.1874
     10 N1         -1.2311    1.9718   -1.7318 N.pl3     1 <0>        -0.0566
     11 N2         -0.2052    1.2980   -2.1102 N.2       1 <0>        -0.0931
     12 H1         -2.1795    1.6711   -1.8330 H         1 <0>         0.2819
     13 C9         -1.7530    4.1535   -0.6389 C.2       1 <0>         0.3793
     14 O2         -1.2836    5.1664   -0.1566 O.2       1 <0>        -0.2919
     15 N3         -3.0890    3.9781   -0.6692 N.am      1 <0>        -0.3452
     16 N4         -3.9368    4.9626   -0.1451 N.2       1 <0>         0.0281
     17 C10        -5.2139    4.7439   -0.0652 C.2       1 <0>        -0.1126
     18 C11        -5.7260    3.3615   -0.0602 C.ar      1 <0>        -0.0641
     19 C12        -4.8508    2.2911    0.1410 C.ar      1 <0>        -0.1859
     20 C13        -5.3330    0.9992    0.1514 C.ar      1 <0>        -0.1190
     21 C14        -6.6844    0.7580   -0.0493 C.ar      1 <0>         0.0566
     22 C15        -7.5619    1.8200   -0.2566 C.ar      1 <0>         0.0795
     23 C16        -7.0870    3.1182   -0.2624 C.ar      1 <0>        -0.1902
     24 O3         -8.8860    1.5795   -0.4531 O.3       1 <0>        -0.1954
     25 C17        -9.7281    2.7155   -0.6590 C.3       1 <0>        -0.0674
     26 O4         -7.1535   -0.5179   -0.0441 O.3       1 <0>        -0.2722
     27 H2          6.2495    2.5535   -2.9466 H         1 <0>         0.0946
     28 H3          6.0469    2.6120   -1.1792 H         1 <0>         0.0936
     29 H4          6.5831    1.1072   -1.9642 H         1 <0>         0.0978
     30 H5          4.7187   -0.3720   -3.1976 H         1 <0>         0.1563
     31 H6          2.0264   -0.3780   -3.0730 H         1 <0>         0.1652
     32 H7          1.1902    3.9511   -0.8638 H         1 <0>         0.1883
     33 H8         -3.4633    3.1702   -1.0538 H         1 <0>         0.2183
     34 H9         -5.9011    5.5746   -0.0025 H         1 <0>         0.1875
     35 H10        -3.7977    2.4757    0.2930 H         1 <0>         0.1513
     36 H11        -4.6563    0.1730    0.3119 H         1 <0>         0.1497
     37 H12        -7.7664    3.9424   -0.4223 H         1 <0>         0.1458
     38 H13        -9.6752    3.3695    0.2114 H         1 <0>         0.0723
     39 H14        -9.3949    3.2593   -1.5430 H         1 <0>         0.0670
     40 H15       -10.7566    2.3841   -0.8025 H         1 <0>         0.1158
     41 H16        -7.1498   -0.9419   -0.9131 H         1 <0>         0.2288
@<TRIPOS>BOND
     1    1    2 1
     2    1   27 1
     3    1   28 1
     4    1   29 1
     5    2    6 1
     6    2    3 2
     7    3    4 1
     8    3   30 1
     9    4    5 2
    10    4   31 1
    11    5    6 1
    12    5    7 1
    13    7    8 1
    14    7   11 2
    15    8   32 1
    16    8    9 2
    17    9   13 1
    18    9   10 1
    19   10   12 1
    20   10   11 1
    21   13   14 2
    22   13   15 am
    23   15   16 1
    24   15   33 1
    25   16   17 2
    26   17   18 1
    27   17   34 1
    28   18   23 ar
    29   18   19 ar
    30   19   20 ar
    31   19   35 1
    32   20   21 ar
    33   20   36 1
    34   21   22 ar
    35   21   26 1
    36   22   23 ar
    37   22   24 1
    38   23   37 1
    39   24   25 1
    40   25   38 1
    41   25   39 1
    42   25   40 1
    43   26   41 1
@<TRIPOS>MOLECULE
ZINC03976846
   41    44     0     0     0
SMALL
USER_CHARGES

@<TRIPOS>ATOM
      1 C1         -6.5274   -1.1535    2.2635 C.3       1 <0>        -0.1764
      2 C2         -5.7328   -1.9720    1.2788 C.ar      1 <0>        -0.0490
      3 C3         -6.3855   -2.7061    0.3051 C.ar      1 <0>        -0.1468
      4 C4         -5.6603   -3.4588   -0.6001 C.ar      1 <0>        -0.0980
      5 C5         -4.2806   -3.4750   -0.5386 C.ar      1 <0>        -0.1486
      6 C6         -3.6221   -2.7434    0.4416 C.ar      1 <0>         0.0764
      7 C7         -4.3540   -1.9885    1.3499 C.ar      1 <0>        -0.1192
      8 C8         -3.6437   -1.1884    2.4111 C.3       1 <0>        -0.1751
      9 N1         -2.2266   -2.7621    0.5103 N.pl3     1 <0>        -0.2502
     10 C9         -1.5077   -3.6203   -0.2957 C.2       1 <0>         0.2098
     11 C10        -0.2035   -3.1911   -0.8214 C.2       1 <0>         0.1058
     12 N2          0.0792   -1.9102   -0.9467 N.2       1 <0>        -0.1693
     13 N3          1.2288   -1.5451   -1.4041 N.2       1 <0>        -0.1817
     14 C11         1.5107   -0.2677   -1.5290 C.2       1 <0>         0.0712
     15 C12         0.5539    0.7067   -1.1622 C.2       1 <0>        -0.3485
     16 C13         0.6497    2.0933   -1.2150 C.2       1 <0>        -0.1215
     17 C14        -0.4428    2.8093   -0.7924 C.2       1 <0>        -0.1955
     18 C15        -1.5427    2.1443   -0.3517 C.2       1 <0>        -0.3525
     19 S1         -1.0915    0.4782   -0.5114 S.3       1 <0>         0.4967
     20 N4          0.7364   -4.1663   -1.1815 N.pl3     1 <0>        -0.2718
     21 H1          1.6943   -4.0357   -1.1025 H         1 <0>         0.2838
     22 C16         0.1628   -5.3430   -1.6646 C.2       1 <0>        -0.0211
     23 C17        -1.2542   -5.6531   -1.3504 C.2       1 <0>        -0.0367
     24 N5         -2.0063   -4.8130   -0.5854 N.2       1 <0>        -0.1739
     25 N6         -1.5500   -6.7862   -1.9141 N.2       1 <0>         0.0386
     26 O1         -0.3896   -7.2503   -2.5893 O.3       1 <0>        -0.0761
     27 N7          0.6423   -6.2951   -2.3862 N.2       1 <0>        -0.0275
     28 H2         -6.6766   -0.1499    1.8651 H         1 <0>         0.0862
     29 H3         -7.4956   -1.6256    2.4307 H         1 <0>         0.0851
     30 H4         -5.9849   -1.0930    3.2070 H         1 <0>         0.0840
     31 H5         -7.4641   -2.6917    0.2520 H         1 <0>         0.1324
     32 H6         -6.1732   -4.0309   -1.3591 H         1 <0>         0.1371
     33 H7         -3.7146   -4.0596   -1.2487 H         1 <0>         0.1644
     34 H8         -3.4303   -0.1893    2.0310 H         1 <0>         0.0825
     35 H9         -4.2775   -1.1132    3.2946 H         1 <0>         0.0943
     36 H10        -2.7094   -1.6838    2.6753 H         1 <0>         0.0707
     37 H11        -1.7633   -2.1716    1.1248 H         1 <0>         0.2629
     38 H12         2.4732    0.0379   -1.9119 H         1 <0>         0.1793
     39 H13         1.5430    2.5844   -1.5719 H         1 <0>         0.1467
     40 H14        -0.4282    3.8891   -0.8102 H         1 <0>         0.1441
     41 H15        -2.4751    2.5548    0.0070 H         1 <0>         0.1876
@<TRIPOS>BOND
     1    1    2 1
     2    1   28 1
     3    1   29 1
     4    1   30 1
     5    2    7 ar
     6    2    3 ar
     7    3    4 ar
     8    3   31 1
     9    4    5 ar
    10    4   32 1
    11    5    6 ar
    12    5   33 1
    13    6    7 ar
    14    6    9 1
    15    7    8 1
    16    8   34 1
    17    8   35 1
    18    8   36 1
    19    9   10 1
    20    9   37 1
    21   10   24 2
    22   10   11 1
    23   11   12 2
    24   11   20 1
    25   12   13 1
    26   13   14 2
    27   14   15 1
    28   14   38 1
    29   15   19 1
    30   15   16 2
    31   16   17 1
    32   16   39 1
    33   17   18 2
    34   17   40 1
    35   18   19 1
    36   18   41 1
    37   20   21 1
    38   20   22 1
    39   22   27 2
    40   22   23 1
    41   23   24 1
    42   23   25 2
    43   25   26 1
    44   26   27 1
@<TRIPOS>MOLECULE
ZINC03976848
   41    44     0     0     0
SMALL
USER_CHARGES

@<TRIPOS>ATOM
      1 C1         10.7345   -1.6930    2.0686 C.3       1 <0>        -0.1751
      2 C2         10.2017   -0.6617    1.1077 C.ar      1 <0>        -0.0493
      3 C3         11.0235   -0.1466    0.1216 C.ar      1 <0>        -0.1496
      4 C4         10.5389    0.8002   -0.7619 C.ar      1 <0>        -0.0990
      5 C5          9.2317    1.2349   -0.6623 C.ar      1 <0>        -0.1499
      6 C6          8.4036    0.7197    0.3268 C.ar      1 <0>         0.0837
      7 C7          8.8955   -0.2274    1.2165 C.ar      1 <0>        -0.1190
      8 C8          8.0027   -0.7845    2.2951 C.3       1 <0>        -0.1717
      9 N1          7.0806    1.1572    0.4303 N.pl3     1 <0>        -0.2335
     10 C9          6.6372    2.2043   -0.3507 C.2       1 <0>         0.1722
     11 C10         5.2572    2.1900   -0.8577 C.2       1 <0>         0.1116
     12 N2          4.6062    1.0525   -0.9953 N.2       1 <0>        -0.1740
     13 N3          5.1795   -0.0604   -0.6842 N.2       1 <0>        -0.1820
     14 C11         4.5303   -1.1947   -0.8213 C.2       1 <0>         0.0753
     15 C12         3.2034   -1.1953   -1.3100 C.2       1 <0>        -0.3540
     16 C13         2.3496   -2.2716   -1.5278 C.2       1 <0>        -0.1195
     17 C14         1.0983   -1.9848   -2.0145 C.2       1 <0>        -0.1975
     18 C15         0.7597   -0.6911   -2.2554 C.2       1 <0>        -0.3515
     19 S1          2.1876    0.1842   -1.8081 S.3       1 <0>         0.5070
     20 N4          4.6473    3.4050   -1.1978 N.pl3     1 <0>        -0.2470
     21 H1          3.6943    3.5637   -1.1110 H         1 <0>         0.2763
     22 C16         5.5375    4.3667   -1.6695 C.2       1 <0>        -0.0183
     23 C17         6.9857    4.2378   -1.3712 C.2       1 <0>        -0.0279
     24 N5          7.4623    3.2004   -0.6275 N.2       1 <0>        -0.1855
     25 N6          7.5993    5.2391   -1.9281 N.2       1 <0>         0.0348
     26 O1          6.6224    6.0364   -2.5823 O.3       1 <0>        -0.0758
     27 N7          5.3555    5.4273   -2.3759 N.2       1 <0>        -0.0277
     28 H2         11.1600   -1.1933    2.9389 H         1 <0>         0.0878
     29 H3          9.9226   -2.3473    2.3863 H         1 <0>         0.0809
     30 H4         11.5061   -2.2845    1.5758 H         1 <0>         0.0833
     31 H5         12.0460   -0.4850    0.0413 H         1 <0>         0.1309
     32 H6         11.1832    1.2001   -1.5309 H         1 <0>         0.1354
     33 H7          8.8539    1.9747   -1.3525 H         1 <0>         0.1630
     34 H8          7.4893   -1.6700    1.9204 H         1 <0>         0.0823
     35 H9          8.6053   -1.0538    3.1625 H         1 <0>         0.0908
     36 H10         7.2676   -0.0328    2.5826 H         1 <0>         0.0698
     37 H11         6.4739    0.7246    1.0514 H         1 <0>         0.2642
     38 H12         5.0103   -2.1265   -0.5609 H         1 <0>         0.1799
     39 H13         2.6568   -3.2865   -1.3231 H         1 <0>         0.1461
     40 H14         0.3910   -2.7787   -2.2041 H         1 <0>         0.1442
     41 H15        -0.1725   -0.3023   -2.6378 H         1 <0>         0.1882
@<TRIPOS>BOND
     1    1    2 1
     2    1   28 1
     3    1   29 1
     4    1   30 1
     5    2    7 ar
     6    2    3 ar
     7    3    4 ar
     8    3   31 1
     9    4    5 ar
    10    4   32 1
    11    5    6 ar
    12    5   33 1
    13    6    7 ar
    14    6    9 1
    15    7    8 1
    16    8   34 1
    17    8   35 1
    18    8   36 1
    19    9   10 1
    20    9   37 1
    21   10   24 2
    22   10   11 1
    23   11   12 2
    24   11   20 1
    25   12   13 1
    26   13   14 2
    27   14   15 1
    28   14   38 1
    29   15   19 1
    30   15   16 2
    31   16   17 1
    32   16   39 1
    33   17   18 2
    34   17   40 1
    35   18   19 1
    36   18   41 1
    37   20   21 1
    38   20   22 1
    39   22   27 2
    40   22   23 1
    41   23   24 1
    42   23   25 2
    43   25   26 1
    44   26   27 1
@<TRIPOS>MOLECULE
ZINC03977204
   39    41     0     0     0
SMALL
USER_CHARGES

@<TRIPOS>ATOM
      1 C1         -1.0037    5.7261    0.5789 C.3       1 <0>        -0.0675
      2 O1          0.0139    5.1642   -0.2522 O.3       1 <0>        -0.1950
      3 C2         -0.1197    3.8540   -0.5915 C.ar      1 <0>         0.0772
      4 C3         -1.2046    3.1291   -0.1350 C.ar      1 <0>        -0.1862
      5 C4         -1.3412    1.7845   -0.4896 C.ar      1 <0>        -0.0803
      6 C5         -0.3756    1.1768   -1.2963 C.ar      1 <0>        -0.1693
      7 C6          0.7036    1.9066   -1.7481 C.ar      1 <0>        -0.1141
      8 C7          0.8366    3.2428   -1.3994 C.ar      1 <0>         0.0614
      9 O2          1.9025    3.9575   -1.8476 O.3       1 <0>        -0.2739
     10 C8         -2.4987    1.0077   -0.0100 C.2       1 <0>        -0.0936
     11 N1         -2.4867   -0.2881   -0.0848 N.2       1 <0>         0.0184
     12 N2         -1.2673   -0.9780   -0.0945 N.pl3     1 <0>        -0.2379
     13 C9         -1.2476   -2.3259   -0.3067 C.2       1 <0>         0.1487
     14 N3         -2.2762   -3.1383   -0.5137 N.2       1 <0>        -0.3519
     15 C10        -2.1706   -4.4232   -0.7148 C.2       1 <0>         0.3080
     16 O3         -3.1388   -5.1330   -0.9066 O.2       1 <0>        -0.2625
     17 C11        -0.7500   -4.9732   -0.6859 C.3       1 <0>        -0.2111
     18 H1         -0.6160   -5.6892    0.1250 H         1 <0>         0.1596
     19 S1          0.1694   -3.4144   -0.3634 S.3       1 <0>         0.0571
     20 C12        -0.3655   -5.5742   -2.0133 C.ar      1 <0>        -0.0608
     21 C13        -0.5391   -4.8483   -3.1769 C.ar      1 <0>        -0.1026
     22 C14        -0.1828   -5.3980   -4.3941 C.ar      1 <0>        -0.1248
     23 C15         0.3394   -6.6768   -4.4487 C.ar      1 <0>        -0.1175
     24 C16         0.5081   -7.4046   -3.2856 C.ar      1 <0>        -0.1270
     25 C17         0.1554   -6.8534   -2.0680 C.ar      1 <0>        -0.1047
     26 H2         -1.9672    5.6509    0.0748 H         1 <0>         0.0682
     27 H3         -1.0439    5.1819    1.5225 H         1 <0>         0.0708
     28 H4         -0.7762    6.7742    0.7735 H         1 <0>         0.1163
     29 H5         -1.9467    3.6019    0.4911 H         1 <0>         0.1457
     30 H6         -0.4769    0.1368   -1.5696 H         1 <0>         0.1491
     31 H7          1.4473    1.4367   -2.3747 H         1 <0>         0.1534
     32 H8          1.7525    4.3974   -2.6956 H         1 <0>         0.2321
     33 H9         -3.3567    1.5168    0.4036 H         1 <0>         0.1922
     34 H10        -0.4371   -0.4975    0.0496 H         1 <0>         0.2585
     35 H11        -0.9502   -3.8505   -3.1346 H         1 <0>         0.1354
     36 H12        -0.3149   -4.8295   -5.3028 H         1 <0>         0.1328
     37 H13         0.6153   -7.1073   -5.4000 H         1 <0>         0.1310
     38 H14         0.9158   -8.4038   -3.3283 H         1 <0>         0.1327
     39 H15         0.2872   -7.4221   -1.1594 H         1 <0>         0.1322
@<TRIPOS>BOND
     1    1    2 1
     2    1   26 1
     3    1   27 1
     4    1   28 1
     5    2    3 1
     6    3    8 ar
     7    3    4 ar
     8    4    5 ar
     9    4   29 1
    10    5    6 ar
    11    5   10 1
    12    6    7 ar
    13    6   30 1
    14    7    8 ar
    15    7   31 1
    16    8    9 1
    17    9   32 1
    18   10   11 2
    19   10   33 1
    20   11   12 1
    21   12   13 1
    22   12   34 1
    23   13   19 1
    24   13   14 2
    25   14   15 1
    26   15   16 2
    27   15   17 1
    28   17   18 1
    29   17   19 1
    30   17   20 1
    31   20   25 ar
    32   20   21 ar
    33   21   22 ar
    34   21   35 1
    35   22   23 ar
    36   22   36 1
    37   23   24 ar
    38   23   37 1
    39   24   25 ar
    40   24   38 1
    41   25   39 1
@<TRIPOS>MOLECULE
ZINC03977206
   39    41     0     0     0
SMALL
USER_CHARGES

@<TRIPOS>ATOM
      1 C1        -11.6816    6.0551   -2.8512 C.3       1 <0>        -0.0676
      2 O1        -10.8669    5.4595   -3.8630 O.3       1 <0>        -0.1948
      3 C2         -9.7956    4.7335   -3.4449 C.ar      1 <0>         0.0786
      4 C3         -9.5400    4.5941   -2.0936 C.ar      1 <0>        -0.1864
      5 C4         -8.4354    3.8519   -1.6679 C.ar      1 <0>        -0.0775
      6 C5         -7.6011    3.2446   -2.6099 C.ar      1 <0>        -0.1783
      7 C6         -7.8658    3.3834   -3.9561 C.ar      1 <0>        -0.1127
      8 C7         -8.9591    4.1256   -4.3786 C.ar      1 <0>         0.0609
      9 O2         -9.2152    4.2596   -5.7069 O.3       1 <0>        -0.2739
     10 C8         -8.1544    3.7049   -0.2282 C.2       1 <0>        -0.0936
     11 N1         -7.0064    3.2442    0.1652 N.2       1 <0>         0.0195
     12 N2         -5.8962    3.3093   -0.6869 N.pl3     1 <0>        -0.2435
     13 C9         -4.7222    2.7151   -0.3246 C.2       1 <0>         0.1487
     14 N3         -4.4535    2.0403    0.7859 N.2       1 <0>        -0.3507
     15 C10        -3.2972    1.5002    1.0575 C.2       1 <0>         0.3080
     16 O3         -3.0911    0.8893    2.0882 O.2       1 <0>        -0.2623
     17 C11        -2.2231    1.6890   -0.0066 C.3       1 <0>        -0.2105
     18 H1         -1.9005    0.7335   -0.4203 H         1 <0>         0.1586
     19 S1         -3.1831    2.6625   -1.2354 S.3       1 <0>         0.0551
     20 C12        -1.0533    2.4758    0.5259 C.ar      1 <0>        -0.0619
     21 C13         0.2224    1.9474    0.4602 C.ar      1 <0>        -0.1045
     22 C14         1.2961    2.6715    0.9435 C.ar      1 <0>        -0.1274
     23 C15         1.0936    3.9217    1.4973 C.ar      1 <0>        -0.1176
     24 C16        -0.1829    4.4477    1.5683 C.ar      1 <0>        -0.1246
     25 C17        -1.2566    3.7236    1.0850 C.ar      1 <0>        -0.1020
     26 H2        -11.0783    6.7399   -2.2553 H         1 <0>         0.0710
     27 H3        -12.4988    6.6040   -3.3192 H         1 <0>         0.1164
     28 H4        -12.0892    5.2756   -2.2075 H         1 <0>         0.0683
     29 H5        -10.1901    5.0615   -1.3688 H         1 <0>         0.1459
     30 H6         -6.7489    2.6668   -2.2838 H         1 <0>         0.1522
     31 H7         -7.2202    2.9135   -4.6833 H         1 <0>         0.1533
     32 H8         -9.7915    3.5719   -6.0677 H         1 <0>         0.2322
     33 H9         -8.9036    3.9805    0.4992 H         1 <0>         0.1921
     34 H10        -5.9620    3.7767   -1.5343 H         1 <0>         0.2632
     35 H11         0.3807    0.9707    0.0272 H         1 <0>         0.1318
     36 H12         2.2934    2.2605    0.8881 H         1 <0>         0.1324
     37 H13         1.9325    4.4874    1.8749 H         1 <0>         0.1308
     38 H14        -0.3412    5.4242    2.0016 H         1 <0>         0.1332
     39 H15        -2.2539    4.1343    1.1407 H         1 <0>         0.1371
@<TRIPOS>BOND
     1    1    2 1
     2    1   26 1
     3    1   27 1
     4    1   28 1
     5    2    3 1
     6    3    8 ar
     7    3    4 ar
     8    4    5 ar
     9    4   29 1
    10    5    6 ar
    11    5   10 1
    12    6    7 ar
    13    6   30 1
    14    7    8 ar
    15    7   31 1
    16    8    9 1
    17    9   32 1
    18   10   11 2
    19   10   33 1
    20   11   12 1
    21   12   13 1
    22   12   34 1
    23   13   19 1
    24   13   14 2
    25   14   15 1
    26   15   16 2
    27   15   17 1
    28   17   18 1
    29   17   19 1
    30   17   20 1
    31   20   25 ar
    32   20   21 ar
    33   21   22 ar
    34   21   35 1
    35   22   23 ar
    36   22   36 1
    37   23   24 ar
    38   23   37 1
    39   24   25 ar
    40   24   38 1
    41   25   39 1
@<TRIPOS>MOLECULE
ZINC03977720
   40    41     0     0     0
SMALL
USER_CHARGES

@<TRIPOS>ATOM
      1 C1          4.3690    1.5443    6.2546 C.3       1 <0>        -0.2400
      2 C2          4.5330    1.6078    4.7579 C.2       1 <0>         0.3249
      3 O1          5.1930    0.7675    4.1840 O.2       1 <0>        -0.3287
      4 N1          3.9462    2.5982    4.0571 N.am      1 <0>        -0.8295
      5 S1          4.1264    2.6680    2.4124 S.o2      1 <0>         2.7501
      6 O2          5.5157    2.5257    2.1497 O.2       1 <0>        -0.8850
      7 O3          3.3785    3.7920    1.9692 O.2       1 <0>        -0.9170
      8 C3          3.3383    1.2422    1.7410 C.ar      1 <0>        -0.7917
      9 C4          2.0005    1.2953    1.3917 C.ar      1 <0>        -0.0171
     10 C5          1.3771    0.1830    0.8656 C.ar      1 <0>        -0.1860
     11 C6          2.0995   -0.9988    0.6858 C.ar      1 <0>         0.0810
     12 C7          3.4496   -1.0451    1.0406 C.ar      1 <0>        -0.1909
     13 C8          4.0601    0.0748    1.5657 C.ar      1 <0>         0.0154
     14 N2          1.4873   -2.1063    0.1647 N.2       1 <0>        -0.1836
     15 C9          1.9783   -2.6844   -0.8956 C.2       1 <0>         0.0435
     16 C10         2.8577   -1.9315   -1.8030 C.ar      1 <0>        -0.1699
     17 C11         2.9882   -0.5457   -1.6638 C.ar      1 <0>        -0.0767
     18 C12         3.8171    0.1564   -2.5114 C.ar      1 <0>        -0.2147
     19 C13         4.5153   -0.5063   -3.5117 C.ar      1 <0>         0.1001
     20 C14         4.3861   -1.8864   -3.6604 C.ar      1 <0>         0.0320
     21 C15         3.5617   -2.5987   -2.8113 C.ar      1 <0>        -0.0851
     22 O4          5.0722   -2.5316   -4.6414 O.3       1 <0>        -0.2731
     23 O5          5.3263    0.1921   -4.3483 O.3       1 <0>        -0.1952
     24 C16         5.4126    1.6032   -4.1401 C.3       1 <0>        -0.0686
     25 H1          3.4893    0.9488    6.4988 H         1 <0>         0.1111
     26 H2          5.2528    1.0855    6.6978 H         1 <0>         0.1218
     27 H3          4.2462    2.5527    6.6498 H         1 <0>         0.0898
     28 H4          3.4183    3.2702    4.5161 H         1 <0>         0.2529
     29 H5          1.4442    2.2110    1.5271 H         1 <0>         0.1475
     30 H6          0.3328    0.2256    0.5937 H         1 <0>         0.1493
     31 H7          4.0141   -1.9557    0.9046 H         1 <0>         0.1492
     32 H8          5.1039    0.0403    1.8408 H         1 <0>         0.1725
     33 H9          1.7394   -3.7160   -1.1077 H         1 <0>         0.1671
     34 H10         2.4428   -0.0269   -0.8893 H         1 <0>         0.1651
     35 H11         3.9204    1.2257   -2.4001 H         1 <0>         0.1479
     36 H12         3.4611   -3.6679   -2.9253 H         1 <0>         0.1465
     37 H13         4.5938   -2.5955   -5.4793 H         1 <0>         0.2251
     38 H14         4.4238    2.0480   -4.2519 H         1 <0>         0.0685
     39 H15         5.7882    1.8001   -3.1360 H         1 <0>         0.0774
     40 H16         6.0915    2.0378   -4.8738 H         1 <0>         0.1138
@<TRIPOS>BOND
     1    1    2 1
     2    1   25 1
     3    1   26 1
     4    1   27 1
     5    2    3 2
     6    2    4 am
     7    4    5 1
     8    4   28 1
     9    5    6 2
    10    5    7 2
    11    5    8 1
    12    8   13 ar
    13    8    9 ar
    14    9   10 ar
    15    9   29 1
    16   10   11 ar
    17   10   30 1
    18   11   12 ar
    19   11   14 1
    20   12   13 ar
    21   12   31 1
    22   13   32 1
    23   14   15 2
    24   15   16 1
    25   15   33 1
    26   16   21 ar
    27   16   17 ar
    28   17   18 ar
    29   17   34 1
    30   18   19 ar
    31   18   35 1
    32   19   20 ar
    33   19   23 1
    34   20   21 ar
    35   20   22 1
    36   21   36 1
    37   22   37 1
    38   23   24 1
    39   24   38 1
    40   24   39 1
    41   24   40 1
@<TRIPOS>MOLECULE
ZINC03979716
   42    44     0     0     0
SMALL
USER_CHARGES

@<TRIPOS>ATOM
      1 C1          1.2034   10.0094    1.0951 C.3       1 <0>        -0.0515
      2 N1          1.4382    8.6417    1.5646 N.am      1 <0>        -0.2371
      3 C2          1.7131    7.6351    0.6531 C.2       1 <0>         0.1001
      4 C3          1.9321    6.3463    1.1232 C.2       1 <0>        -0.2409
      5 C4          1.8686    6.1007    2.5117 C.2       1 <0>         0.3911
      6 O1          2.0562    4.9792    2.9482 O.2       1 <0>        -0.3677
      7 N2          1.5968    7.1227    3.3498 N.am      1 <0>        -0.3340
      8 H1          1.5508    6.9534    4.3343 H         1 <0>         0.2841
      9 C5          1.3870    8.3649    2.8812 C.2       1 <0>         0.4100
     10 O2          1.1443    9.2613    3.6662 O.2       1 <0>        -0.3789
     11 N3          2.1773    5.5659    0.0112 N.pl3     1 <0>        -0.0819
     12 C6          2.1082    6.3773   -1.0622 C.2       1 <0>        -0.0103
     13 N4          1.8281    7.5962   -0.6769 N.2       1 <0>        -0.1934
     14 C7          2.4645    4.1294    0.0007 C.3       1 <0>        -0.0397
     15 C8          1.1698    3.3582    0.0089 C.2       1 <0>         0.3023
     16 O3          0.1111    3.9504    0.0222 O.2       1 <0>        -0.2970
     17 N5          1.1881    2.0106    0.0015 N.am      1 <0>        -0.3285
     18 N6         -0.0155    1.2936    0.0092 N.2       1 <0>        -0.0009
     19 C9          0.0021   -0.0041    0.0020 C.2       1 <0>        -0.0937
     20 C10        -1.2645   -0.7585    0.0101 C.ar      1 <0>        -0.0952
     21 C11        -2.4851   -0.0785    0.0311 C.ar      1 <0>        -0.0440
     22 C12        -3.6665   -0.7878    0.0337 C.ar      1 <0>        -0.2292
     23 C13        -3.6453   -2.1766    0.0255 C.ar      1 <0>         0.1134
     24 C14        -2.4343   -2.8568    0.0099 C.ar      1 <0>        -0.1663
     25 C15        -1.2480   -2.1558    0.0024 C.ar      1 <0>        -0.0702
     26 O4         -4.8124   -2.8718    0.0334 O.3       1 <0>        -0.2100
     27 C16        -6.0212   -2.1099    0.0494 C.3       1 <0>        -0.0644
     28 H2          0.1406   10.1482    0.8970 H         1 <0>         0.0884
     29 H3          1.5259   10.7164    1.8595 H         1 <0>         0.1104
     30 H4          1.7691   10.1814    0.1793 H         1 <0>         0.1030
     31 H5          2.2581    6.0679   -2.0861 H         1 <0>         0.2126
     32 H6          3.0481    3.8691    0.8838 H         1 <0>         0.1490
     33 H7          3.0311    3.8786   -0.8961 H         1 <0>         0.1161
     34 H8          2.0346    1.5371   -0.0091 H         1 <0>         0.2051
     35 H9          0.9446   -0.5313   -0.0098 H         1 <0>         0.1144
     36 H10        -2.5025    1.0013    0.0416 H         1 <0>         0.1611
     37 H11        -4.6104   -0.2631    0.0458 H         1 <0>         0.1412
     38 H12        -2.4225   -3.9367    0.0040 H         1 <0>         0.1466
     39 H13        -0.3068   -2.6855   -0.0090 H         1 <0>         0.1334
     40 H14        -6.0458   -1.4862    0.9430 H         1 <0>         0.0715
     41 H15        -6.0634   -1.4767   -0.8368 H         1 <0>         0.0707
     42 H16        -6.8765   -2.7856    0.0542 H         1 <0>         0.1101
@<TRIPOS>BOND
     1    1    2 1
     2    1   28 1
     3    1   29 1
     4    1   30 1
     5    2    9 am
     6    2    3 1
     7    3   13 1
     8    3    4 2
     9    4    5 1
    10    4   11 1
    11    5    6 2
    12    5    7 am
    13    7    8 1
    14    7    9 am
    15    9   10 2
    16   11   12 1
    17   11   14 1
    18   12   13 2
    19   12   31 1
    20   14   15 1
    21   14   32 1
    22   14   33 1
    23   15   16 2
    24   15   17 am
    25   17   18 1
    26   17   34 1
    27   18   19 2
    28   19   20 1
    29   19   35 1
    30   20   25 ar
    31   20   21 ar
    32   21   22 ar
    33   21   36 1
    34   22   23 ar
    35   22   37 1
    36   23   24 ar
    37   23   26 1
    38   24   25 ar
    39   24   38 1
    40   25   39 1
    41   26   27 1
    42   27   40 1
    43   27   41 1
    44   27   42 1
@<TRIPOS>MOLECULE
ZINC03979716
   43    45     0     0     0
SMALL
USER_CHARGES

@<TRIPOS>ATOM
      1 C1          1.2034   10.0094    1.0951 C.3       1 <0>        -0.0711
      2 N1          1.4382    8.6417    1.5646 N.am      1 <0>        -0.2443
      3 C2          1.7131    7.6351    0.6531 C.2       1 <0>         0.1252
      4 C3          1.9321    6.3463    1.1232 C.2       1 <0>        -0.1630
      5 C4          1.8686    6.1007    2.5117 C.2       1 <0>         0.3801
      6 O1          2.0562    4.9792    2.9482 O.2       1 <0>        -0.2936
      7 N2          1.5968    7.1227    3.3498 N.am      1 <0>        -0.3221
      8 H1          1.5508    6.9534    4.3343 H         1 <0>         0.3147
      9 C5          1.3870    8.3649    2.8812 C.2       1 <0>         0.4097
     10 O2          1.1443    9.2613    3.6662 O.2       1 <0>        -0.3002
     11 N3          2.1773    5.5659    0.0112 N.pl3     1 <0>         0.0063
     12 C6          2.1082    6.3773   -1.0622 C.cat     1 <0>         0.0430
     13 C7          2.4645    4.1294    0.0007 C.3       1 <0>        -0.0623
     14 C8          1.1698    3.3582    0.0089 C.2       1 <0>         0.3063
     15 O3          0.1111    3.9504    0.0222 O.2       1 <0>        -0.3134
     16 N4          1.1881    2.0106    0.0015 N.am      1 <0>        -0.3079
     17 N5         -0.0155    1.2936    0.0092 N.2       1 <0>        -0.0291
     18 C9          0.0021   -0.0041    0.0020 C.2       1 <0>        -0.0467
     19 C10        -1.2645   -0.7585    0.0101 C.ar      1 <0>        -0.1213
     20 C11        -2.4851   -0.0785    0.0311 C.ar      1 <0>        -0.0379
     21 C12        -3.6665   -0.7878    0.0337 C.ar      1 <0>        -0.2327
     22 C13        -3.6453   -2.1766    0.0255 C.ar      1 <0>         0.1324
     23 C14        -2.4343   -2.8568    0.0099 C.ar      1 <0>        -0.1638
     24 C15        -1.2480   -2.1558    0.0024 C.ar      1 <0>        -0.0575
     25 O4         -4.8124   -2.8718    0.0334 O.3       1 <0>        -0.2009
     26 C16        -6.0212   -2.1099    0.0494 C.3       1 <0>        -0.0665
     27 H2          0.1406   10.1482    0.8970 H         1 <0>         0.1137
     28 H3          1.5259   10.7164    1.8595 H         1 <0>         0.1534
     29 H4          1.7691   10.1814    0.1793 H         1 <0>         0.0809
     30 H5          2.2581    6.0679   -2.0861 H         1 <0>         0.2562
     31 H6          3.0481    3.8691    0.8838 H         1 <0>         0.1768
     32 H7          3.0311    3.8786   -0.8961 H         1 <0>         0.1411
     33 H8          2.0346    1.5371   -0.0091 H         1 <0>         0.2093
     34 H9          0.9446   -0.5313   -0.0098 H         1 <0>         0.1201
     35 H10        -2.5025    1.0013    0.0416 H         1 <0>         0.1539
     36 H11        -4.6104   -0.2631    0.0458 H         1 <0>         0.1458
     37 H12        -2.4225   -3.9367    0.0040 H         1 <0>         0.1562
     38 H13        -0.3068   -2.6855   -0.0090 H         1 <0>         0.1369
     39 H14        -6.0458   -1.4862    0.9430 H         1 <0>         0.0725
     40 H15        -6.0634   -1.4767   -0.8368 H         1 <0>         0.0717
     41 H16        -6.8765   -2.7856    0.0542 H         1 <0>         0.1195
     42 N6          1.8279    7.5978   -0.6782 N.pl3     1 <0>        -0.1118
     43 H17         1.7137    8.4034   -1.3045 H         1 <0>         0.3202
@<TRIPOS>BOND
     1    1    2 1
     2    1   27 1
     3    1   28 1
     4    1   29 1
     5    2    9 am
     6    2    3 1
     7    3    4 2
     8    3   42 1
     9    4    5 1
    10    4   11 1
    11    5    6 2
    12    5    7 am
    13    7    8 1
    14    7    9 am
    15    9   10 2
    16   11   12 1
    17   11   13 1
    18   12   30 1
    19   12   42 2
    20   13   14 1
    21   13   31 1
    22   13   32 1
    23   14   15 2
    24   14   16 am
    25   16   17 1
    26   16   33 1
    27   17   18 2
    28   18   19 1
    29   18   34 1
    30   19   24 ar
    31   19   20 ar
    32   20   21 ar
    33   20   35 1
    34   21   22 ar
    35   21   36 1
    36   22   23 ar
    37   22   25 1
    38   23   24 ar
    39   23   37 1
    40   24   38 1
    41   25   26 1
    42   26   39 1
    43   26   40 1
    44   26   41 1
    45   42   43 1
@<TRIPOS>MOLECULE
ZINC03979721
   43    46     0     0     0
SMALL
USER_CHARGES

@<TRIPOS>ATOM
      1 C1          0.4037   10.9218    0.1165 C.3       1 <0>        -0.1701
      2 C2          1.2347    9.6646    0.1042 C.ar      1 <0>        -0.1058
      3 C3          2.6205    9.7548    0.1004 C.ar      1 <0>        -0.0812
      4 C4          3.3978    8.6185    0.0897 C.ar      1 <0>        -0.1488
      5 C5          2.7927    7.3639    0.0821 C.ar      1 <0>         0.0500
      6 C6          1.3875    7.2778    0.0856 C.ar      1 <0>        -0.1145
      7 C7          0.6191    8.4458    0.0965 C.ar      1 <0>        -0.0680
      8 C8          1.0594    5.8528    0.0754 C.2       1 <0>         0.0289
      9 C9          2.2599    5.1661    0.0666 C.2       1 <0>        -0.1450
     10 N1          3.2980    6.0835    0.0707 N.pl3     1 <0>        -0.1562
     11 H1          4.2412    5.8571    0.0665 H         1 <0>         0.2629
     12 C10         2.2294    3.7485    0.0613 C.2       1 <0>         0.3742
     13 O1          3.2679    3.1117    0.0590 O.2       1 <0>        -0.3227
     14 N2          1.0417    3.1117    0.0538 N.am      1 <0>        -0.2535
     15 C11        -0.1140    3.7984    0.0621 C.2       1 <0>         0.4004
     16 O2         -1.1677    3.1910    0.0601 O.2       1 <0>        -0.3718
     17 N3         -0.1290    5.1449    0.0730 N.am      1 <0>        -0.2791
     18 H2         -1.0011    5.6341    0.0794 H         1 <0>         0.2745
     19 N4          1.0109    1.7111    0.0431 N.2       1 <0>         0.0041
     20 C12         0.4306    1.0821   -0.9330 C.2       1 <0>        -0.0143
     21 C13         0.1224    1.7921   -2.1874 C.ar      1 <0>        -0.0735
     22 C14         0.6097    3.0846   -2.3986 C.ar      1 <0>        -0.1545
     23 C15         0.3242    3.7451   -3.5747 C.ar      1 <0>        -0.1202
     24 C16        -0.4553    3.1336   -4.5461 C.ar      1 <0>         0.0634
     25 C17        -0.9490    1.8471   -4.3401 C.ar      1 <0>         0.0699
     26 C18        -0.6627    1.1766   -3.1660 C.ar      1 <0>        -0.1759
     27 O3         -1.7124    1.2508   -5.2948 O.3       1 <0>        -0.1985
     28 C19        -2.1845   -0.0690   -5.0171 C.3       1 <0>        -0.0667
     29 O4         -0.7384    3.7914   -5.7013 O.3       1 <0>        -0.2762
     30 H3          0.2001   11.2327   -0.9082 H         1 <0>         0.0864
     31 H4         -0.5374   10.7302    0.6319 H         1 <0>         0.0820
     32 H5          0.9475   11.7117    0.6346 H         1 <0>         0.0832
     33 H6          3.0931   10.7259    0.1063 H         1 <0>         0.1382
     34 H7          4.4748    8.6998    0.0876 H         1 <0>         0.1365
     35 H8         -0.4591    8.3842    0.0988 H         1 <0>         0.1312
     36 H9          0.1776    0.0375   -0.8276 H         1 <0>         0.1874
     37 H10         1.2130    3.5647   -1.6423 H         1 <0>         0.1529
     38 H11         0.7049    4.7424   -3.7385 H         1 <0>         0.1493
     39 H12        -1.0445    0.1792   -3.0053 H         1 <0>         0.1425
     40 H13        -2.8001   -0.0530   -4.1177 H         1 <0>         0.0685
     41 H14        -2.7790   -0.4266   -5.8579 H         1 <0>         0.1125
     42 H15        -1.3347   -0.7342   -4.8640 H         1 <0>         0.0693
     43 H16        -1.5473    4.3201   -5.6648 H         1 <0>         0.2283
@<TRIPOS>BOND
     1    1    2 1
     2    1   30 1
     3    1   31 1
     4    1   32 1
     5    2    7 ar
     6    2    3 ar
     7    3    4 ar
     8    3   33 1
     9    4    5 ar
    10    4   34 1
    11    5   10 1
    12    5    6 ar
    13    6    7 ar
    14    6    8 1
    15    7   35 1
    16    8   17 1
    17    8    9 2
    18    9   10 1
    19    9   12 1
    20   10   11 1
    21   12   13 2
    22   12   14 am
    23   14   15 am
    24   14   19 1
    25   15   16 2
    26   15   17 am
    27   17   18 1
    28   19   20 2
    29   20   21 1
    30   20   36 1
    31   21   26 ar
    32   21   22 ar
    33   22   23 ar
    34   22   37 1
    35   23   24 ar
    36   23   38 1
    37   24   25 ar
    38   24   29 1
    39   25   26 ar
    40   25   27 1
    41   26   39 1
    42   27   28 1
    43   28   40 1
    44   28   41 1
    45   28   42 1
    46   29   43 1
@<TRIPOS>MOLECULE
ZINC03979727
   41    45     0     0     0
SMALL
USER_CHARGES

@<TRIPOS>ATOM
      1 C1          4.0472    7.7508    0.8885 C.3       1 <0>        -0.1697
      2 C2          3.6624    6.3054    0.7050 C.ar      1 <0>        -0.1071
      3 C3          4.6523    5.3395    0.5801 C.ar      1 <0>        -0.0818
      4 C4          4.3220    4.0137    0.4105 C.ar      1 <0>        -0.1488
      5 C5          2.9829    3.6326    0.3647 C.ar      1 <0>         0.0516
      6 C6          1.9831    4.6157    0.4918 C.ar      1 <0>        -0.1123
      7 C7          2.3432    5.9558    0.6624 C.ar      1 <0>        -0.0672
      8 C8          0.7014    3.9171    0.4051 C.2       1 <0>         0.0331
      9 C9          0.9883    2.5751    0.2335 C.2       1 <0>        -0.1438
     10 N1          2.3640    2.4129    0.2104 N.pl3     1 <0>        -0.1552
     11 H1          2.8230    1.5654    0.1011 H         1 <0>         0.2625
     12 C10        -0.0897    1.6611    0.1190 C.2       1 <0>         0.3741
     13 O1          0.1265    0.4720   -0.0334 O.2       1 <0>        -0.3239
     14 N2         -1.3556    2.1200    0.1745 N.am      1 <0>        -0.2570
     15 C11        -1.6127    3.4281    0.3473 C.2       1 <0>         0.4000
     16 O2         -2.7674    3.8067    0.3976 O.2       1 <0>        -0.3710
     17 N3         -0.6180    4.3288    0.4599 N.am      1 <0>        -0.2783
     18 H2         -0.8337    5.2974    0.5834 H         1 <0>         0.2745
     19 N4         -2.4212    1.2182    0.0560 N.2       1 <0>         0.0041
     20 C12        -3.2384    1.3075   -0.9487 C.2       1 <0>        -0.0092
     21 C13        -2.8950    2.1544   -2.1050 C.ar      1 <0>        -0.1024
     22 C14        -3.8443    2.3992   -3.1008 C.ar      1 <0>        -0.0861
     23 C15        -3.5222    3.1953   -4.1790 C.ar      1 <0>        -0.1177
     24 C16        -2.2535    3.7477   -4.2855 C.ar      1 <0>         0.0252
     25 C17        -1.2994    3.5031   -3.2979 C.ar      1 <0>         0.0037
     26 C18        -1.6173    2.7100   -2.2116 C.ar      1 <0>        -0.1184
     27 O3         -0.1470    4.1531   -3.6349 O.3       1 <0>        -0.2030
     28 C19        -0.5305    5.1274   -4.6231 C.3       1 <0>         0.1061
     29 O4         -1.6967    4.5501   -5.2389 O.3       1 <0>        -0.2048
     30 H3          4.1415    7.9695    1.9521 H         1 <0>         0.0868
     31 H4          4.9997    7.9389    0.3931 H         1 <0>         0.0822
     32 H5          3.2788    8.3895    0.4529 H         1 <0>         0.0808
     33 H6          5.6915    5.6312    0.6154 H         1 <0>         0.1374
     34 H7          5.0996    3.2704    0.3147 H         1 <0>         0.1359
     35 H8          1.5794    6.7130    0.7606 H         1 <0>         0.1305
     36 H9         -4.1700    0.7611   -0.9372 H         1 <0>         0.1897
     37 H10        -4.8314    1.9678   -3.0238 H         1 <0>         0.1437
     38 H11        -4.2584    3.3865   -4.9457 H         1 <0>         0.1480
     39 H12        -0.8793    2.5197   -1.4465 H         1 <0>         0.1646
     40 H13        -0.7784    6.0769   -4.1487 H         1 <0>         0.0897
     41 H14         0.2638    5.2610   -5.3575 H         1 <0>         0.1333
@<TRIPOS>BOND
     1    1    2 1
     2    1   30 1
     3    1   31 1
     4    1   32 1
     5    2    7 ar
     6    2    3 ar
     7    3    4 ar
     8    3   33 1
     9    4    5 ar
    10    4   34 1
    11    5   10 1
    12    5    6 ar
    13    6    7 ar
    14    6    8 1
    15    7   35 1
    16    8   17 1
    17    8    9 2
    18    9   10 1
    19    9   12 1
    20   10   11 1
    21   12   13 2
    22   12   14 am
    23   14   15 am
    24   14   19 1
    25   15   16 2
    26   15   17 am
    27   17   18 1
    28   19   20 2
    29   20   21 1
    30   20   36 1
    31   21   26 ar
    32   21   22 ar
    33   22   23 ar
    34   22   37 1
    35   23   24 ar
    36   23   38 1
    37   24   29 1
    38   24   25 ar
    39   25   26 ar
    40   25   27 1
    41   26   39 1
    42   27   28 1
    43   28   29 1
    44   28   40 1
    45   28   41 1
@<TRIPOS>MOLECULE
ZINC03979731
   42    46     0     0     0
SMALL
USER_CHARGES

@<TRIPOS>ATOM
      1 C1          5.4056    7.9259    0.9198 C.3       1 <0>        -0.0626
      2 O1          4.0088    7.6263    0.8851 O.3       1 <0>        -0.2106
      3 C2          3.6609    6.3225    0.7162 C.ar      1 <0>         0.0659
      4 C3          4.6513    5.3515    0.5862 C.ar      1 <0>        -0.1653
      5 C4          4.3165    4.0277    0.4152 C.ar      1 <0>        -0.1150
      6 C5          2.9779    3.6462    0.3696 C.ar      1 <0>         0.0228
      7 C6          1.9750    4.6247    0.5002 C.ar      1 <0>        -0.0815
      8 C7          2.3288    5.9667    0.6740 C.ar      1 <0>        -0.1080
      9 C8          0.6953    3.9225    0.4122 C.2       1 <0>         0.0249
     10 C9          0.9855    2.5817    0.2364 C.2       1 <0>        -0.1400
     11 N1          2.3614    2.4231    0.2118 N.pl3     1 <0>        -0.1585
     12 H1          2.8227    1.5772    0.0996 H         1 <0>         0.2622
     13 C10        -0.0903    1.6654    0.1194 C.2       1 <0>         0.3726
     14 O2          0.1289    0.4773   -0.0363 O.2       1 <0>        -0.3239
     15 N2         -1.3573    2.1211    0.1763 N.am      1 <0>        -0.2565
     16 C11        -1.6177    3.4279    0.3538 C.2       1 <0>         0.3989
     17 O3         -2.7734    3.8032    0.4061 O.2       1 <0>        -0.3653
     18 N3         -0.6253    4.3308    0.4688 N.am      1 <0>        -0.2788
     19 H2         -0.8434    5.2985    0.5954 H         1 <0>         0.2775
     20 N4         -2.4206    1.2171    0.0545 N.2       1 <0>         0.0032
     21 C12        -3.2380    1.3080   -0.9498 C.2       1 <0>        -0.0073
     22 C13        -2.8942    2.1557   -2.1055 C.ar      1 <0>        -0.1033
     23 C14        -1.6183    2.7163   -2.2083 C.ar      1 <0>        -0.1263
     24 C15        -1.2976    3.5052   -3.2923 C.ar      1 <0>        -0.1142
     25 C16        -2.2413    3.7539   -4.2789 C.ar      1 <0>         0.0262
     26 C17        -3.5184    3.2019   -4.1800 C.ar      1 <0>        -0.0000
     27 C18        -3.8449    2.4059   -3.0984 C.ar      1 <0>        -0.0776
     28 O4         -4.2478    3.5940   -5.2655 O.3       1 <0>        -0.2051
     29 C19        -3.2833    4.0519   -6.2314 C.3       1 <0>         0.1064
     30 O5         -2.1736    4.4906   -5.4259 O.3       1 <0>        -0.2050
     31 H3          5.8719    7.3891    1.7459 H         1 <0>         0.0676
     32 H4          5.8664    7.6190   -0.0191 H         1 <0>         0.0671
     33 H5          5.5439    8.9981    1.0591 H         1 <0>         0.1114
     34 H6          5.6914    5.6403    0.6199 H         1 <0>         0.1428
     35 H7          5.0930    3.2836    0.3163 H         1 <0>         0.1371
     36 H8          1.5625    6.7210    0.7750 H         1 <0>         0.1465
     37 H9         -4.1700    0.7624   -0.9387 H         1 <0>         0.1897
     38 H10        -0.8824    2.5286   -1.4403 H         1 <0>         0.1608
     39 H11        -0.3099    3.9345   -3.3719 H         1 <0>         0.1490
     40 H12        -4.8336    1.9783   -3.0206 H         1 <0>         0.1481
     41 H13        -2.9811    3.2355   -6.8874 H         1 <0>         0.0906
     42 H14        -3.6868    4.8816   -6.8118 H         1 <0>         0.1334
@<TRIPOS>BOND
     1    1    2 1
     2    1   31 1
     3    1   32 1
     4    1   33 1
     5    2    3 1
     6    3    8 ar
     7    3    4 ar
     8    4    5 ar
     9    4   34 1
    10    5    6 ar
    11    5   35 1
    12    6   11 1
    13    6    7 ar
    14    7    8 ar
    15    7    9 1
    16    8   36 1
    17    9   18 1
    18    9   10 2
    19   10   11 1
    20   10   13 1
    21   11   12 1
    22   13   14 2
    23   13   15 am
    24   15   16 am
    25   15   20 1
    26   16   17 2
    27   16   18 am
    28   18   19 1
    29   20   21 2
    30   21   22 1
    31   21   37 1
    32   22   27 ar
    33   22   23 ar
    34   23   24 ar
    35   23   38 1
    36   24   25 ar
    37   24   39 1
    38   25   30 1
    39   25   26 ar
    40   26   27 ar
    41   26   28 1
    42   27   40 1
    43   28   29 1
    44   29   30 1
    45   29   41 1
    46   29   42 1
@<TRIPOS>MOLECULE
ZINC03979735
   43    46     0     0     0
SMALL
USER_CHARGES

@<TRIPOS>ATOM
      1 C1          3.1493    8.6108    0.9791 C.3       1 <0>        -0.1700
      2 C2          2.9144    7.1223    0.9641 C.ar      1 <0>        -0.1064
      3 C3          3.9824    6.2545    1.1509 C.ar      1 <0>        -0.0816
      4 C4          3.7893    4.8914    1.1404 C.ar      1 <0>        -0.1492
      5 C5          2.5119    4.3730    0.9407 C.ar      1 <0>         0.0495
      6 C6          1.4325    5.2570    0.7518 C.ar      1 <0>        -0.1150
      7 C7          1.6534    6.6375    0.7666 C.ar      1 <0>        -0.0678
      8 C8          0.2429    4.4260    0.5707 C.2       1 <0>         0.0303
      9 C9          0.6577    3.1096    0.6580 C.2       1 <0>        -0.1447
     10 N1          2.0249    3.0869    0.8808 N.pl3     1 <0>        -0.1568
     11 H1          2.5597    2.2838    0.9799 H         1 <0>         0.2626
     12 C10        -0.3105    2.0834    0.5159 C.2       1 <0>         0.3761
     13 O1          0.0199    0.9130    0.5868 O.2       1 <0>        -0.3240
     14 N2         -1.5984    2.4140    0.2961 N.am      1 <0>        -0.2546
     15 C11        -1.9813    3.7003    0.2189 C.2       1 <0>         0.4007
     16 O2         -3.1528    3.9623    0.0236 O.2       1 <0>        -0.3784
     17 N3         -1.0936    4.7046    0.3487 N.am      1 <0>        -0.2785
     18 H2         -1.4014    5.6539    0.2844 H         1 <0>         0.2736
     19 N4         -2.5545    1.4005    0.1498 N.2       1 <0>         0.0054
     20 C12        -3.2379    1.3067   -0.9500 C.2       1 <0>        -0.0117
     21 C13        -2.8945    2.1543   -2.1053 C.ar      1 <0>        -0.0944
     22 C14        -1.6167    2.7110   -2.2130 C.ar      1 <0>        -0.1514
     23 C15        -1.2992    3.5031   -3.2956 C.ar      1 <0>        -0.0982
     24 C16        -2.2405    3.7512   -4.2802 C.ar      1 <0>        -0.1943
     25 C17        -3.5113    3.2066   -4.1867 C.ar      1 <0>         0.0747
     26 C18        -3.8445    2.4015   -3.1036 C.ar      1 <0>         0.0818
     27 O3         -5.0879    1.8613   -3.0115 O.3       1 <0>        -0.2790
     28 O4         -4.4306    3.4548   -5.1578 O.3       1 <0>        -0.1971
     29 C19        -4.0177    4.2851   -6.2450 C.3       1 <0>        -0.0655
     30 H3          3.0410    8.9855    1.9969 H         1 <0>         0.0873
     31 H4          4.1558    8.8234    0.6188 H         1 <0>         0.0825
     32 H5          2.4209    9.1000    0.3323 H         1 <0>         0.0812
     33 H6          4.9743    6.6528    1.3056 H         1 <0>         0.1379
     34 H7          4.6266    4.2252    1.2869 H         1 <0>         0.1362
     35 H8          0.8281    7.3190    0.6225 H         1 <0>         0.1312
     36 H9         -4.0580    0.6073   -1.0182 H         1 <0>         0.1996
     37 H10        -0.8782    2.5203   -1.4484 H         1 <0>         0.1471
     38 H11        -0.3113    3.9319   -3.3763 H         1 <0>         0.1367
     39 H12        -1.9832    4.3727   -5.1252 H         1 <0>         0.1399
     40 H13        -5.7048    2.3826   -2.4797 H         1 <0>         0.2358
     41 H14        -3.1716    3.8234   -6.7539 H         1 <0>         0.0693
     42 H15        -4.8437    4.4025   -6.9465 H         1 <0>         0.1122
     43 H16        -3.7230    5.2629   -5.8639 H         1 <0>         0.0666
@<TRIPOS>BOND
     1    1    2 1
     2    1   30 1
     3    1   31 1
     4    1   32 1
     5    2    7 ar
     6    2    3 ar
     7    3    4 ar
     8    3   33 1
     9    4    5 ar
    10    4   34 1
    11    5   10 1
    12    5    6 ar
    13    6    7 ar
    14    6    8 1
    15    7   35 1
    16    8   17 1
    17    8    9 2
    18    9   10 1
    19    9   12 1
    20   10   11 1
    21   12   13 2
    22   12   14 am
    23   14   15 am
    24   14   19 1
    25   15   16 2
    26   15   17 am
    27   17   18 1
    28   19   20 2
    29   20   21 1
    30   20   36 1
    31   21   26 ar
    32   21   22 ar
    33   22   23 ar
    34   22   37 1
    35   23   24 ar
    36   23   38 1
    37   24   25 ar
    38   24   39 1
    39   25   26 ar
    40   25   28 1
    41   26   27 1
    42   27   40 1
    43   28   29 1
    44   29   41 1
    45   29   42 1
    46   29   43 1
@<TRIPOS>MOLECULE
ZINC03979754
   40    43     0     0     0
SMALL
USER_CHARGES

@<TRIPOS>ATOM
      1 C1          2.1529   -8.7292   -0.4027 C.3       1 <0>        -0.0626
      2 O1          2.5678   -7.3617   -0.4160 O.3       1 <0>        -0.2111
      3 C2          1.5931   -6.4198   -0.3060 C.ar      1 <0>         0.0659
      4 C3          0.2611   -6.8102   -0.1874 C.ar      1 <0>        -0.1657
      5 C4         -0.7373   -5.8699   -0.0756 C.ar      1 <0>        -0.1141
      6 C5         -0.4227   -4.5132   -0.0801 C.ar      1 <0>         0.0226
      7 C6          0.9219   -4.1155   -0.1997 C.ar      1 <0>        -0.0814
      8 C7          1.9272   -5.0814   -0.3126 C.ar      1 <0>        -0.1093
      9 C8          0.9266   -2.6534   -0.1729 C.2       1 <0>         0.0228
     10 C9         -0.3901   -2.2510   -0.0411 C.2       1 <0>        -0.1374
     11 N1         -1.1964   -3.3760    0.0142 N.pl3     1 <0>        -0.1576
     12 H1         -2.1620   -3.3653    0.1061 H         1 <0>         0.2626
     13 C10        -0.6716   -0.8625    0.0174 C.2       1 <0>         0.3729
     14 O2         -1.8194   -0.4729    0.1389 O.2       1 <0>        -0.3226
     15 N2          0.3412    0.0226   -0.0670 N.am      1 <0>        -0.2550
     16 C11         1.6143   -0.3895   -0.1954 C.2       1 <0>         0.3995
     17 O3          2.5039    0.4371   -0.2636 O.2       1 <0>        -0.3689
     18 N3          1.9250   -1.6987   -0.2495 N.am      1 <0>        -0.2797
     19 H2          2.8794   -1.9814   -0.3452 H         1 <0>         0.2758
     20 N4          0.0632    1.3947   -0.0142 N.2       1 <0>         0.0011
     21 C12         0.3260    2.1500   -1.0368 C.2       1 <0>        -0.0111
     22 C13         0.6374    1.5407   -2.3423 C.ar      1 <0>        -0.1148
     23 C14         0.4731    0.1657   -2.5311 C.ar      1 <0>        -0.1173
     24 C15         0.7609   -0.3987   -3.7547 C.ar      1 <0>        -0.1537
     25 C16         1.2238    0.3951   -4.7965 C.ar      1 <0>         0.0930
     26 C17         1.3937    1.7614   -4.6118 C.ar      1 <0>        -0.1578
     27 C18         1.1034    2.3354   -3.3933 C.ar      1 <0>        -0.0770
     28 O4          1.5117   -0.1665   -5.9993 O.3       1 <0>        -0.2921
     29 H3          1.6419   -8.9447    0.5356 H         1 <0>         0.0679
     30 H4          1.4744   -8.9111   -1.2361 H         1 <0>         0.0672
     31 H5          3.0261   -9.3747   -0.4976 H         1 <0>         0.1112
     32 H6          0.0099   -7.8606   -0.1828 H         1 <0>         0.1428
     33 H7         -1.7664   -6.1844    0.0162 H         1 <0>         0.1374
     34 H8          2.9604   -4.7807   -0.4050 H         1 <0>         0.1455
     35 H9          0.3164    3.2247   -0.9310 H         1 <0>         0.1883
     36 H10         0.1174   -0.4528   -1.7204 H         1 <0>         0.1540
     37 H11         0.6300   -1.4604   -3.9029 H         1 <0>         0.1453
     38 H12         1.7542    2.3746   -5.4244 H         1 <0>         0.1442
     39 H13         1.2361    3.3976   -3.2505 H         1 <0>         0.1372
     40 H14         2.4266   -0.4682   -6.0836 H         1 <0>         0.2321
@<TRIPOS>BOND
     1    1    2 1
     2    1   29 1
     3    1   30 1
     4    1   31 1
     5    2    3 1
     6    3    8 ar
     7    3    4 ar
     8    4    5 ar
     9    4   32 1
    10    5    6 ar
    11    5   33 1
    12    6   11 1
    13    6    7 ar
    14    7    8 ar
    15    7    9 1
    16    8   34 1
    17    9   18 1
    18    9   10 2
    19   10   11 1
    20   10   13 1
    21   11   12 1
    22   13   14 2
    23   13   15 am
    24   15   16 am
    25   15   20 1
    26   16   17 2
    27   16   18 am
    28   18   19 1
    29   20   21 2
    30   21   22 1
    31   21   35 1
    32   22   27 ar
    33   22   23 ar
    34   23   24 ar
    35   23   36 1
    36   24   25 ar
    37   24   37 1
    38   25   26 ar
    39   25   28 1
    40   26   27 ar
    41   26   38 1
    42   27   39 1
    43   28   40 1
@<TRIPOS>MOLECULE
ZINC03979757
   40    43     0     0     0
SMALL
USER_CHARGES

@<TRIPOS>ATOM
      1 C1         -0.3192   -1.7538    6.2822 C.3       1 <0>        -0.0655
      2 O1         -1.2493   -1.7459    5.1973 O.3       1 <0>        -0.1970
      3 C2         -1.0560   -0.8148    4.2250 C.ar      1 <0>         0.0749
      4 C3          0.0065    0.0708    4.3151 C.ar      1 <0>        -0.1941
      5 C4          0.2098    1.0212    3.3294 C.ar      1 <0>        -0.0981
      6 C5         -0.6429    1.0965    2.2485 C.ar      1 <0>        -0.1519
      7 C6         -1.7185    0.2101    2.1441 C.ar      1 <0>        -0.0940
      8 C7         -1.9269   -0.7477    3.1442 C.ar      1 <0>         0.0817
      9 O2         -2.9728   -1.6108    3.0555 O.3       1 <0>        -0.2790
     10 C8         -2.6321    0.2871    0.9906 C.2       1 <0>        -0.0116
     11 N1         -2.2407    0.8519   -0.1109 N.2       1 <0>         0.0054
     12 N2         -0.9040    1.2438   -0.2606 N.am      1 <0>        -0.2543
     13 C9         -0.6147    2.5417   -0.4800 C.2       1 <0>         0.3761
     14 O3         -1.5078    3.3674   -0.5471 O.2       1 <0>        -0.3236
     15 C10         0.7380    2.9370   -0.6370 C.2       1 <0>        -0.1447
     16 C11         1.7224    1.9692   -0.5544 C.2       1 <0>         0.0312
     17 C12         3.0018    2.6494   -0.7517 C.ar      1 <0>        -0.1192
     18 C13         4.3311    2.2168   -0.7772 C.ar      1 <0>        -0.0653
     19 C14         5.3350    3.1174   -0.9901 C.ar      1 <0>        -0.1600
     20 C15         5.0467    4.4623   -1.1812 C.ar      1 <0>        -0.0834
     21 C16         3.7454    4.9116   -1.1598 C.ar      1 <0>        -0.1520
     22 C17         2.7040    4.0117   -0.9448 C.ar      1 <0>         0.0538
     23 N3          1.3378    4.1635   -0.8721 N.pl3     1 <0>        -0.1567
     24 H1          0.8650    5.0047   -0.9709 H         1 <0>         0.2629
     25 N4          1.3655    0.6531   -0.3224 N.am      1 <0>        -0.2786
     26 H2          2.0718   -0.0521   -0.2612 H         1 <0>         0.2737
     27 C18         0.0688    0.3196   -0.1788 C.2       1 <0>         0.4007
     28 O4         -0.2286   -0.8421    0.0239 O.2       1 <0>        -0.3780
     29 H3         -0.5875   -2.5425    6.9851 H         1 <0>         0.1123
     30 H4          0.6848   -1.9351    5.8986 H         1 <0>         0.0667
     31 H5         -0.3455   -0.7899    6.7903 H         1 <0>         0.0694
     32 H6          0.6792    0.0189    5.1583 H         1 <0>         0.1400
     33 H7          1.0401    1.7073    3.4076 H         1 <0>         0.1366
     34 H8         -0.4799    1.8405    1.4827 H         1 <0>         0.1467
     35 H9         -2.7894   -2.3976    2.5242 H         1 <0>         0.2358
     36 H10        -3.6273   -0.1263    1.0614 H         1 <0>         0.1997
     37 H11         4.5633    1.1725   -0.6291 H         1 <0>         0.1302
     38 H12         6.3611    2.7813   -1.0098 H         1 <0>         0.1359
     39 H13         5.8514    5.1631   -1.3478 H         1 <0>         0.1371
     40 H14         3.5324    5.9598   -1.3092 H         1 <0>         0.1362
@<TRIPOS>BOND
     1    1    2 1
     2    1   29 1
     3    1   30 1
     4    1   31 1
     5    2    3 1
     6    3    8 ar
     7    3    4 ar
     8    4    5 ar
     9    4   32 1
    10    5    6 ar
    11    5   33 1
    12    6    7 ar
    13    6   34 1
    14    7    8 ar
    15    7   10 1
    16    8    9 1
    17    9   35 1
    18   10   11 2
    19   10   36 1
    20   11   12 1
    21   12   27 am
    22   12   13 am
    23   13   14 2
    24   13   15 1
    25   15   23 1
    26   15   16 2
    27   16   17 1
    28   16   25 1
    29   17   22 ar
    30   17   18 ar
    31   18   19 ar
    32   18   37 1
    33   19   20 ar
    34   19   38 1
    35   20   21 ar
    36   20   39 1
    37   21   22 ar
    38   21   40 1
    39   22   23 1
    40   23   24 1
    41   25   26 1
    42   25   27 am
    43   27   28 2
@<TRIPOS>MOLECULE
ZINC03979785
   44    47     0     0     0
SMALL
USER_CHARGES

@<TRIPOS>ATOM
      1 C1          4.4899    8.9037    1.1885 C.3       1 <0>        -0.0625
      2 O1          3.1461    8.4657    0.9777 O.3       1 <0>        -0.2112
      3 C2          2.9294    7.1232    0.9635 C.ar      1 <0>         0.0653
      4 C3          3.9957    6.2463    1.1494 C.ar      1 <0>        -0.1662
      5 C4          3.7938    4.8851    1.1374 C.ar      1 <0>        -0.1146
      6 C5          2.5151    4.3705    0.9384 C.ar      1 <0>         0.0223
      7 C6          1.4357    5.2537    0.7503 C.ar      1 <0>        -0.0818
      8 C7          1.6546    6.6351    0.7647 C.ar      1 <0>        -0.1090
      9 C8          0.2457    4.4231    0.5704 C.2       1 <0>         0.0241
     10 C9          0.6595    3.1063    0.6574 C.2       1 <0>        -0.1364
     11 N1          2.0267    3.0826    0.8789 N.pl3     1 <0>        -0.1585
     12 H1          2.5612    2.2792    0.9774 H         1 <0>         0.2622
     13 C10        -0.3095    2.0809    0.5155 C.2       1 <0>         0.3757
     14 O2          0.0198    0.9102    0.5866 O.2       1 <0>        -0.3236
     15 N2         -1.5971    2.4125    0.2957 N.am      1 <0>        -0.2546
     16 C11        -1.9798    3.6991    0.2217 C.2       1 <0>         0.4007
     17 O3         -3.1514    3.9619    0.0285 O.2       1 <0>        -0.3777
     18 N3         -1.0911    4.7028    0.3498 N.am      1 <0>        -0.2781
     19 H2         -1.3981    5.6523    0.2853 H         1 <0>         0.2750
     20 N4         -2.5540    1.3997    0.1491 N.2       1 <0>         0.0050
     21 C12        -3.2376    1.3068   -0.9506 C.2       1 <0>        -0.0113
     22 C13        -2.8941    2.1550   -2.1055 C.ar      1 <0>        -0.0947
     23 C14        -1.6163    2.7118   -2.2128 C.ar      1 <0>        -0.1514
     24 C15        -1.2987    3.5043   -3.2950 C.ar      1 <0>        -0.0980
     25 C16        -2.2400    3.7531   -4.2795 C.ar      1 <0>        -0.1940
     26 C17        -3.5107    3.2084   -4.1864 C.ar      1 <0>         0.0747
     27 C18        -3.8439    2.4024   -3.1039 C.ar      1 <0>         0.0818
     28 O4         -5.0873    1.8620   -3.0123 O.3       1 <0>        -0.2792
     29 O5         -4.4300    3.4572   -5.1573 O.3       1 <0>        -0.1971
     30 C19        -4.0171    4.2884   -6.2439 C.3       1 <0>        -0.0655
     31 H3          4.8436    8.5398    2.1531 H         1 <0>         0.0679
     32 H4          5.1281    8.5124    0.3962 H         1 <0>         0.0669
     33 H5          4.5229    9.9932    1.1769 H         1 <0>         0.1111
     34 H6          4.9901    6.6384    1.3039 H         1 <0>         0.1426
     35 H7          4.6282    4.2150    1.2826 H         1 <0>         0.1371
     36 H8          0.8291    7.3166    0.6211 H         1 <0>         0.1455
     37 H9         -4.0581    0.6079   -1.0190 H         1 <0>         0.1996
     38 H10        -0.8780    2.5208   -1.4480 H         1 <0>         0.1467
     39 H11        -0.3107    3.9329   -3.3755 H         1 <0>         0.1369
     40 H12        -1.9826    4.3752   -5.1240 H         1 <0>         0.1401
     41 H13        -5.7044    2.3830   -2.4804 H         1 <0>         0.2359
     42 H14        -3.7225    5.2659   -5.8621 H         1 <0>         0.0670
     43 H15        -3.1709    3.8271   -6.7531 H         1 <0>         0.0692
     44 H16        -4.8430    4.4062   -6.9454 H         1 <0>         0.1122
@<TRIPOS>BOND
     1    1    2 1
     2    1   31 1
     3    1   32 1
     4    1   33 1
     5    2    3 1
     6    3    8 ar
     7    3    4 ar
     8    4    5 ar
     9    4   34 1
    10    5    6 ar
    11    5   35 1
    12    6   11 1
    13    6    7 ar
    14    7    8 ar
    15    7    9 1
    16    8   36 1
    17    9   18 1
    18    9   10 2
    19   10   11 1
    20   10   13 1
    21   11   12 1
    22   13   14 2
    23   13   15 am
    24   15   16 am
    25   15   20 1
    26   16   17 2
    27   16   18 am
    28   18   19 1
    29   20   21 2
    30   21   22 1
    31   21   37 1
    32   22   27 ar
    33   22   23 ar
    34   23   24 ar
    35   23   38 1
    36   24   25 ar
    37   24   39 1
    38   25   26 ar
    39   25   40 1
    40   26   27 ar
    41   26   29 1
    42   27   28 1
    43   28   41 1
    44   29   30 1
    45   30   42 1
    46   30   43 1
    47   30   44 1
@<TRIPOS>MOLECULE
ZINC03979959
   43    45     0     0     0
SMALL
USER_CHARGES

@<TRIPOS>ATOM
      1 C1          2.3963   -5.7492   -2.2439 C.ar      1 <0>        -0.0970
      2 C2          3.6849   -5.2507   -2.3254 C.ar      1 <0>        -0.1418
      3 C3          3.9399   -3.9336   -2.0072 C.ar      1 <0>        -0.0634
      4 C4          2.8923   -3.1008   -1.6011 C.ar      1 <0>        -0.1548
      5 C5          1.5939   -3.6134   -1.5161 C.ar      1 <0>        -0.0908
      6 C6          1.3541   -4.9313   -1.8433 C.ar      1 <0>        -0.1428
      7 C7          3.1559   -1.6938   -1.2592 C.2       1 <0>         0.2770
      8 O1          4.2837   -1.2540   -1.3292 O.2       1 <0>        -0.2699
      9 C8          2.0242   -0.7999   -0.8221 C.3       1 <0>        -0.3194
     10 S1          2.6639    0.8574   -0.4750 S.3       1 <0>         0.3004
     11 C9          1.1730    1.6676   -0.0002 C.2       1 <0>        -0.0704
     12 C10         1.2044    2.9813    0.3464 C.2       1 <0>        -0.1652
     13 C11        -0.0408    3.7083    0.7639 C.3       1 <0>         0.0505
     14 C12        -0.0683    5.1042    0.1100 C.3       1 <0>        -0.1542
     15 C13        -0.6718    6.0226    1.2019 C.3       1 <0>        -0.1695
     16 C14        -0.0492    5.4603    2.5041 C.3       1 <0>        -0.1617
     17 C15        -0.0283    3.9331    2.2851 C.3       1 <0>        -0.1600
     18 C16        -1.2731    2.9453    0.3735 C.3       1 <0>        -0.0424
     19 C17        -1.2127    1.6343    0.0174 C.2       1 <0>         0.2050
     20 N1         -0.0110    0.9657    0.0078 N.2       1 <0>        -0.3110
     21 N2         -2.3624    0.9704   -0.3362 N.pl3     1 <0>        -0.3722
     22 C18        -2.5395    3.6139    0.3701 C.1       1 <0>        -0.1340
     23 N3         -3.5440    4.1442    0.3674 N.1       1 <0>        -0.0196
     24 C19         2.4510    3.6854    0.3169 C.1       1 <0>        -0.0734
     25 N4          3.4400    4.2440    0.2935 N.1       1 <0>        -0.0485
     26 H1          2.2029   -6.7818   -2.4944 H         1 <0>         0.1329
     27 H2          4.4927   -5.8951   -2.6395 H         1 <0>         0.1374
     28 H3          4.9460   -3.5461   -2.0710 H         1 <0>         0.1549
     29 H4          0.7804   -2.9776   -1.1991 H         1 <0>         0.1338
     30 H5          0.3513   -5.3275   -1.7821 H         1 <0>         0.1331
     31 H6          1.6035   -1.1746    0.0041 H         1 <0>         0.1273
     32 H7          1.2789   -0.7428   -1.6155 H         1 <0>         0.1340
     33 H8          0.9414    5.4265   -0.1442 H         1 <0>         0.1107
     34 H9         -0.7024    5.0979   -0.7765 H         1 <0>         0.0930
     35 H10        -1.7580    5.9344    1.2238 H         1 <0>         0.0871
     36 H11        -0.3729    7.0593    1.0472 H         1 <0>         0.0953
     37 H12        -0.6693    5.7139    3.3639 H         1 <0>         0.0875
     38 H13         0.9634    5.8401    2.6401 H         1 <0>         0.0974
     39 H14        -0.9100    3.4788    2.7371 H         1 <0>         0.0766
     40 H15         0.8758    3.5053    2.7185 H         1 <0>         0.1092
     41 H16        -1.6780    2.5274    1.1868 H         1 <0>         0.1338
     42 H17        -2.3236    0.0353   -0.5909 H         1 <0>         0.2456
     43 H18        -3.2129    1.4369   -0.3313 H         1 <0>         0.2396
@<TRIPOS>BOND
     1    1    6 ar
     2    1    2 ar
     3    1   26 1
     4    2    3 ar
     5    2   27 1
     6    3    4 ar
     7    3   28 1
     8    4    5 ar
     9    4    7 1
    10    5    6 ar
    11    5   29 1
    12    6   30 1
    13    7    8 2
    14    7    9 1
    15    9   10 1
    16    9   31 1
    17    9   32 1
    18   10   11 1
    19   11   12 2
    20   11   20 1
    21   12   13 1
    22   12   24 1
    23   13   17 1
    24   13   14 1
    25   13   18 1
    26   14   15 1
    27   14   33 1
    28   14   34 1
    29   15   16 1
    30   15   35 1
    31   15   36 1
    32   16   17 1
    33   16   37 1
    34   16   38 1
    35   17   39 1
    36   17   40 1
    37   18   22 1
    38   18   19 1
    39   18   41 1
    40   19   21 1
    41   19   20 2
    42   21   42 1
    43   21   43 1
    44   22   23 3
    45   24   25 3
@<TRIPOS>MOLECULE
ZINC03979959
   43    45     0     0     0
SMALL
USER_CHARGES

@<TRIPOS>ATOM
      1 C1          2.3939   -5.7371   -2.2867 C.ar      1 <0>        -0.0932
      2 C2          3.6795   -5.2339   -2.3853 C.ar      1 <0>        -0.1411
      3 C3          3.9337   -3.9157   -2.0713 C.ar      1 <0>        -0.0613
      4 C4          2.8884   -3.0865   -1.6520 C.ar      1 <0>        -0.1585
      5 C5          1.5931   -3.6039   -1.5497 C.ar      1 <0>        -0.0897
      6 C6          1.3540   -4.9229   -1.8730 C.ar      1 <0>        -0.1407
      7 C7          3.1512   -1.6783   -1.3143 C.2       1 <0>         0.2792
      8 O1          4.2763   -1.2344   -1.3993 O.2       1 <0>        -0.2715
      9 C8          2.0220   -0.7884   -0.8630 C.3       1 <0>        -0.3164
     10 S1          2.6600    0.8715   -0.5252 S.3       1 <0>         0.3109
     11 C9          1.1724    1.6765   -0.0314 C.2       1 <0>        -0.0674
     12 C10         1.2049    2.9884    0.3217 C.3       1 <0>        -0.0356
     13 C11        -0.0380    3.7038    0.7803 C.3       1 <0>         0.0656
     14 C12        -0.0677    5.1035    0.1348 C.3       1 <0>        -0.1650
     15 C13        -0.6673    6.0154    1.2342 C.3       1 <0>        -0.1606
     16 C14        -0.0402    5.4454    2.5309 C.3       1 <0>        -0.1636
     17 C15        -0.0201    3.9195    2.3027 C.3       1 <0>        -0.1532
     18 C16        -1.2717    2.9431    0.3897 C.2       1 <0>        -0.2644
     19 C17        -1.2127    1.6343    0.0174 C.2       1 <0>         0.2177
     20 N1         -0.0087    0.9702   -0.0075 N.2       1 <0>        -0.2709
     21 N2         -2.3624    0.9704   -0.3362 N.pl3     1 <0>        -0.3752
     22 C18        -2.5401    3.6077    0.4086 C.1       1 <0>        -0.0600
     23 N3         -3.5461    4.1349    0.4235 N.1       1 <0>        -0.0845
     24 C19         2.4483    3.6972    0.2753 C.1       1 <0>        -0.1277
     25 N4          3.4347    4.2596    0.2385 N.1       1 <0>        -0.0047
     26 H1          2.2011   -6.7706   -2.5341 H         1 <0>         0.1350
     27 H2          4.4855   -5.8755   -2.7096 H         1 <0>         0.1391
     28 H3          4.9374   -3.5245   -2.1484 H         1 <0>         0.1549
     29 H4          0.7815   -2.9709   -1.2225 H         1 <0>         0.1344
     30 H5          0.3535   -5.3227   -1.7985 H         1 <0>         0.1360
     31 H6          1.6135   -1.1642   -0.0312 H         1 <0>         0.1346
     32 H7          1.2662   -0.7345   -1.6466 H         1 <0>         0.1407
     33 H8          0.9411    5.4273   -0.1211 H         1 <0>         0.0888
     34 H9         -0.7049    5.1025   -0.7495 H         1 <0>         0.0988
     35 H10        -1.7535    5.9271    1.2594 H         1 <0>         0.1000
     36 H11        -0.3689    7.0530    1.0846 H         1 <0>         0.0891
     37 H12        -0.6572    5.6939    3.3943 H         1 <0>         0.0892
     38 H13         0.9729    5.8244    2.6655 H         1 <0>         0.0865
     39 H14        -0.9003    3.4626    2.7551 H         1 <0>         0.1009
     40 H15         0.8855    3.4891    2.7304 H         1 <0>         0.0896
     41 H16         1.2960    3.0809   -0.6699 H         1 <0>         0.1419
     42 H17        -2.3236    0.0353   -0.5909 H         1 <0>         0.2282
     43 H18        -3.2129    1.4369   -0.3313 H         1 <0>         0.2437
@<TRIPOS>BOND
     1    1    6 ar
     2    1    2 ar
     3    1   26 1
     4    2    3 ar
     5    2   27 1
     6    3    4 ar
     7    3   28 1
     8    4    5 ar
     9    4    7 1
    10    5    6 ar
    11    5   29 1
    12    6   30 1
    13    7    8 2
    14    7    9 1
    15    9   10 1
    16    9   31 1
    17    9   32 1
    18   10   11 1
    19   11   12 1
    20   11   20 2
    21   12   13 1
    22   12   24 1
    23   12   41 1
    24   13   17 1
    25   13   14 1
    26   13   18 1
    27   14   15 1
    28   14   33 1
    29   14   34 1
    30   15   16 1
    31   15   35 1
    32   15   36 1
    33   16   17 1
    34   16   37 1
    35   16   38 1
    36   17   39 1
    37   17   40 1
    38   18   22 1
    39   18   19 2
    40   19   21 1
    41   19   20 1
    42   21   42 1
    43   21   43 1
    44   22   23 3
    45   24   25 3
@<TRIPOS>MOLECULE
ZINC03980324
   40    43     0     0     0
SMALL
USER_CHARGES

@<TRIPOS>ATOM
      1 C1         -3.5583   -3.5797   -0.5727 C.3       1 <0>        -0.0627
      2 O1         -2.5626   -2.5550   -0.5494 O.3       1 <0>        -0.2174
      3 C2         -1.2772   -2.9399   -0.7560 C.ar      1 <0>         0.1615
      4 C3         -0.9770   -4.2709   -0.9756 C.ar      1 <0>        -0.2663
      5 C4          0.3353   -4.6664   -1.1863 C.ar      1 <0>        -0.0420
      6 C5          1.3586   -3.7437   -1.1809 C.ar      1 <0>        -0.1965
      7 C6          1.0842   -2.3964   -0.9616 C.ar      1 <0>         0.0885
      8 C7         -0.2461   -1.9890   -0.7471 C.ar      1 <0>        -0.1452
      9 C8         -0.2116   -0.5418   -0.5513 C.2       1 <0>         0.0603
     10 C9          1.1132   -0.1551   -0.6553 C.2       1 <0>        -0.1615
     11 N1          1.8866   -1.2789   -0.9026 N.pl3     1 <0>        -0.1566
     12 H1          2.8499   -1.2781   -1.0165 H         1 <0>         0.2645
     13 C10         1.4314    1.2168   -0.5035 C.2       1 <0>         0.3771
     14 O2          2.5872    1.5924   -0.5894 O.2       1 <0>        -0.3272
     15 N2          0.4448    2.1031   -0.2642 N.am      1 <0>        -0.2555
     16 C11        -0.8362    1.7072   -0.1667 C.2       1 <0>         0.3983
     17 O3         -1.7013    2.5353    0.0450 O.2       1 <0>        -0.3790
     18 N3         -1.1815    0.4128   -0.3040 N.am      1 <0>        -0.2746
     19 H2         -2.1409    0.1413   -0.2270 H         1 <0>         0.2832
     20 N4          0.7594    3.4601   -0.1149 N.2       1 <0>         0.0024
     21 C12         0.4761    4.0741    0.9933 C.2       1 <0>        -0.0133
     22 C13        -0.0196    3.3112    2.1522 C.ar      1 <0>        -0.1287
     23 C14         0.2276    1.9396    2.2481 C.ar      1 <0>        -0.1104
     24 C15        -0.2341    1.2326    3.3382 C.ar      1 <0>        -0.1374
     25 C16        -0.9521    1.8742    4.3333 C.ar      1 <0>        -0.0961
     26 C17        -1.2082    3.2294    4.2476 C.ar      1 <0>        -0.1527
     27 C18        -0.7467    3.9564    3.1621 C.ar      1 <0>         0.1107
     28 O4         -0.9975    5.2882    3.0771 O.3       1 <0>        -0.2954
     29 H3         -3.5523   -4.0702   -1.5461 H         1 <0>         0.0743
     30 H4         -3.3436   -4.3128    0.2049 H         1 <0>         0.0729
     31 H5         -4.5387   -3.1378   -0.3947 H         1 <0>         0.1117
     32 H6         -1.7678   -5.0063   -0.9828 H         1 <0>         0.1405
     33 H7          0.5578   -5.7093   -1.3573 H         1 <0>         0.1374
     34 H8          2.3758   -4.0663   -1.3468 H         1 <0>         0.1369
     35 H9          0.6037    5.1441    1.0657 H         1 <0>         0.1973
     36 H10         0.7830    1.4345    1.4717 H         1 <0>         0.1468
     37 H11        -0.0389    0.1731    3.4139 H         1 <0>         0.1364
     38 H12        -1.3143    1.3120    5.1814 H         1 <0>         0.1343
     39 H13        -1.7691    3.7226    5.0276 H         1 <0>         0.1440
     40 H14        -1.7809    5.5083    2.5547 H         1 <0>         0.2395
@<TRIPOS>BOND
     1    1    2 1
     2    1   29 1
     3    1   30 1
     4    1   31 1
     5    2    3 1
     6    3    8 ar
     7    3    4 ar
     8    4    5 ar
     9    4   32 1
    10    5    6 ar
    11    5   33 1
    12    6    7 ar
    13    6   34 1
    14    7   11 1
    15    7    8 ar
    16    8    9 1
    17    9   18 1
    18    9   10 2
    19   10   11 1
    20   10   13 1
    21   11   12 1
    22   13   14 2
    23   13   15 am
    24   15   16 am
    25   15   20 1
    26   16   17 2
    27   16   18 am
    28   18   19 1
    29   20   21 2
    30   21   22 1
    31   21   35 1
    32   22   27 ar
    33   22   23 ar
    34   23   24 ar
    35   23   36 1
    36   24   25 ar
    37   24   37 1
    38   25   26 ar
    39   25   38 1
    40   26   27 ar
    41   26   39 1
    42   27   28 1
    43   28   40 1
@<TRIPOS>MOLECULE
ZINC03982845
   44    46     0     0     0
SMALL
USER_CHARGES

@<TRIPOS>ATOM
      1 C1         -1.9798    0.9845   -1.5205 C.3       1 <0>        -0.1703
      2 C2         -0.9650    1.7536   -0.7145 C.ar      1 <0>        -0.0652
      3 C3         -0.0131    1.0758    0.0253 C.ar      1 <0>        -0.1647
      4 C4          0.9230    1.7777    0.7619 C.ar      1 <0>        -0.1163
      5 C5          0.9071    3.1590    0.7649 C.ar      1 <0>        -0.1408
      6 C6         -0.0506    3.8424    0.0275 C.ar      1 <0>         0.0936
      7 C7         -0.9898    3.1343   -0.7111 C.ar      1 <0>        -0.1606
      8 N1         -0.0691    5.2415    0.0281 N.am      1 <0>        -0.3160
      9 C8          1.0853    5.9307    0.1216 C.2       1 <0>         0.3328
     10 O1          2.1457    5.3421    0.1089 O.2       1 <0>        -0.3830
     11 C9          1.0586    7.4327    0.2420 C.3       1 <0>        -0.0072
     12 H1          0.5096    7.7155    1.1401 H         1 <0>         0.1100
     13 C10         2.4910    7.9627    0.3318 C.3       1 <0>        -0.1020
     14 C11         2.4622    9.4496    0.5752 C.ar      1 <0>        -0.0221
     15 C12         2.4465    9.9366    1.8690 C.ar      1 <0>        -0.1617
     16 C13         2.4199   11.2997    2.0975 C.ar      1 <0>        -0.1293
     17 C14         2.4095   12.1813    1.0285 C.ar      1 <0>         0.0197
     18 C15         2.4258   11.6912   -0.2738 C.ar      1 <0>         0.0803
     19 C16         2.4572   10.3238   -0.4958 C.ar      1 <0>        -0.1657
     20 O2          2.4157   12.5524   -1.3262 O.3       1 <0>        -0.2132
     21 C17         2.4335   11.9781   -2.6346 C.3       1 <0>        -0.0718
     22 O3          2.3839   13.5226    1.2516 O.3       1 <0>        -0.2807
     23 C18         0.3800    8.0216   -0.9679 C.2       1 <0>        -0.2562
     24 N2         -0.2767    8.3421   -2.9591 N.2       1 <0>        -0.1568
     25 N3         -0.7728    9.2651   -2.2112 N.2       1 <0>        -0.1802
     26 N4         -0.3879    9.0834   -0.9951 N.2       1 <0>        -0.2083
     27 H2         -2.8592    0.7896   -0.9067 H         1 <0>         0.0748
     28 H3         -2.2686    1.5691   -2.3940 H         1 <0>         0.0831
     29 H4         -1.5455    0.0384   -1.8439 H         1 <0>         0.0725
     30 H5          0.0019   -0.0041    0.0240 H         1 <0>         0.1150
     31 H6          1.6676    1.2456    1.3353 H         1 <0>         0.1196
     32 H7          1.6390    3.7068    1.3400 H         1 <0>         0.1568
     33 H8         -1.7360    3.6629   -1.2857 H         1 <0>         0.1386
     34 H9         -0.9128    5.7154   -0.0388 H         1 <0>         0.2473
     35 H10         3.0099    7.4699    1.1540 H         1 <0>         0.0819
     36 H11         3.0136    7.7575   -0.6025 H         1 <0>         0.1129
     37 H12         2.4546    9.2505    2.7030 H         1 <0>         0.1210
     38 H13         2.4077   11.6775    3.1092 H         1 <0>         0.1251
     39 H14         2.4737    9.9409   -1.5055 H         1 <0>         0.1596
     40 H15         3.3355   11.3782   -2.7558 H         1 <0>         0.0567
     41 H16         1.5558   11.3452   -2.7656 H         1 <0>         0.1096
     42 H17         2.4229   12.7729   -3.3804 H         1 <0>         0.0914
     43 H18         3.2597   13.9266    1.3208 H         1 <0>         0.2036
     44 N5          0.4326    7.5676   -2.2245 N.2       1 <0>        -0.2340
@<TRIPOS>BOND
     1    1    2 1
     2    1   27 1
     3    1   28 1
     4    1   29 1
     5    2    7 ar
     6    2    3 ar
     7    3    4 ar
     8    3   30 1
     9    4    5 ar
    10    4   31 1
    11    5    6 ar
    12    5   32 1
    13    6    7 ar
    14    6    8 1
    15    7   33 1
    16    8    9 am
    17    8   34 1
    18    9   10 2
    19    9   11 1
    20   11   12 1
    21   11   13 1
    22   11   23 1
    23   13   14 1
    24   13   35 1
    25   13   36 1
    26   14   19 ar
    27   14   15 ar
    28   15   16 ar
    29   15   37 1
    30   16   17 ar
    31   16   38 1
    32   17   18 ar
    33   17   22 1
    34   18   19 ar
    35   18   20 1
    36   19   39 1
    37   20   21 1
    38   21   40 1
    39   21   41 1
    40   21   42 1
    41   22   43 1
    42   23   26 2
    43   23   44 1
    44   24   25 2
    45   24   44 1
    46   25   26 1
@<TRIPOS>MOLECULE
ZINC03982846
   44    46     0     0     0
SMALL
USER_CHARGES

@<TRIPOS>ATOM
      1 C1         -2.1652    0.9671    1.2560 C.3       1 <0>        -0.1696
      2 C2         -1.0530    1.7453    0.6014 C.ar      1 <0>        -0.0672
      3 C3         -0.0115    1.0760   -0.0151 C.ar      1 <0>        -0.1628
      4 C4          1.0081    1.7863   -0.6213 C.ar      1 <0>        -0.1192
      5 C5          0.9919    3.1675   -0.6088 C.ar      1 <0>        -0.1399
      6 C6         -0.0495    3.8425    0.0140 C.ar      1 <0>         0.0907
      7 C7         -1.0720    3.1260    0.6225 C.ar      1 <0>        -0.1564
      8 N1         -0.0691    5.2415    0.0281 N.am      1 <0>        -0.3147
      9 C8          1.0853    5.9307    0.1216 C.2       1 <0>         0.3335
     10 O1          2.1457    5.3421    0.1089 O.2       1 <0>        -0.3860
     11 C9          1.0586    7.4327    0.2420 C.3       1 <0>        -0.0060
     12 H1          0.5678    7.8586   -0.6331 H         1 <0>         0.1061
     13 C10         2.4910    7.9627    0.3318 C.3       1 <0>        -0.1019
     14 C11         2.4703    9.4695    0.3284 C.ar      1 <0>        -0.0239
     15 C12         2.3852   10.1608    1.5227 C.ar      1 <0>        -0.1050
     16 C13         2.3658   11.5431    1.5249 C.ar      1 <0>        -0.1131
     17 C14         2.4321   12.2388    0.3284 C.ar      1 <0>         0.0246
     18 C15         2.5182   11.5430   -0.8736 C.ar      1 <0>         0.0563
     19 C16         2.5421   10.1576   -0.8684 C.ar      1 <0>        -0.2117
     20 O2          2.5835   12.2214   -2.0505 O.3       1 <0>        -0.2123
     21 C17         2.6703   11.4416   -3.2448 C.3       1 <0>        -0.0614
     22 O3          2.4136   13.5986    0.3289 O.3       1 <0>        -0.2807
     23 C18         0.2995    7.8237    1.4838 C.2       1 <0>        -0.2572
     24 N2         -0.4869    7.8246    3.4536 N.2       1 <0>        -0.1540
     25 N3         -0.9379    8.8583    2.8327 N.2       1 <0>        -0.1767
     26 N4         -0.4699    8.8743    1.6324 N.2       1 <0>        -0.2107
     27 H2         -1.9109    0.7772    2.2988 H         1 <0>         0.0841
     28 H3         -3.0894    1.5428    1.2064 H         1 <0>         0.0774
     29 H4         -2.2996    0.0185    0.7362 H         1 <0>         0.0683
     30 H5          0.0031   -0.0038   -0.0269 H         1 <0>         0.1145
     31 H6          1.8178    1.2607   -1.1055 H         1 <0>         0.1190
     32 H7          1.7883    3.7218   -1.0831 H         1 <0>         0.1615
     33 H8         -1.8834    3.6481    1.1077 H         1 <0>         0.1396
     34 H9         -0.9135    5.7153   -0.0294 H         1 <0>         0.2437
     35 H10         2.9527    7.6077    1.2532 H         1 <0>         0.1157
     36 H11         3.0649    7.6053   -0.5232 H         1 <0>         0.0792
     37 H12         2.3334    9.6197    2.4559 H         1 <0>         0.1571
     38 H13         2.2993   12.0807    2.4592 H         1 <0>         0.1384
     39 H14         2.6126    9.6152   -1.7997 H         1 <0>         0.1267
     40 H15         3.5687   10.8251   -3.2118 H         1 <0>         0.0592
     41 H16         1.7925   10.8004   -3.3246 H         1 <0>         0.0705
     42 H17         2.7160   12.1043   -4.1089 H         1 <0>         0.0917
     43 H18         3.2898   14.0039    0.3849 H         1 <0>         0.2045
     44 N5          0.2684    7.1712    2.6504 N.2       1 <0>        -0.2321
@<TRIPOS>BOND
     1    1    2 1
     2    1   27 1
     3    1   28 1
     4    1   29 1
     5    2    7 ar
     6    2    3 ar
     7    3    4 ar
     8    3   30 1
     9    4    5 ar
    10    4   31 1
    11    5    6 ar
    12    5   32 1
    13    6    7 ar
    14    6    8 1
    15    7   33 1
    16    8    9 am
    17    8   34 1
    18    9   10 2
    19    9   11 1
    20   11   12 1
    21   11   13 1
    22   11   23 1
    23   13   14 1
    24   13   35 1
    25   13   36 1
    26   14   19 ar
    27   14   15 ar
    28   15   16 ar
    29   15   37 1
    30   16   17 ar
    31   16   38 1
    32   17   18 ar
    33   17   22 1
    34   18   19 ar
    35   18   20 1
    36   19   39 1
    37   20   21 1
    38   21   40 1
    39   21   41 1
    40   21   42 1
    41   22   43 1
    42   23   26 2
    43   23   44 1
    44   24   25 2
    45   24   44 1
    46   25   26 1
@<TRIPOS>MOLECULE
ZINC03982892
   41    44     0     0     0
SMALL
USER_CHARGES

@<TRIPOS>ATOM
      1 C1         -0.0127    1.0858    0.0080 C.3       1 <0>        -0.2117
      2 C2         -0.7288    1.5792    1.2668 C.3       1 <0>        -0.0169
      3 O1         -0.7482    3.0081    1.2747 O.3       1 <0>        -0.2103
      4 C3         -1.3516    3.6108    2.3318 C.ar      1 <0>         0.0999
      5 C4         -1.9186    2.8381    3.3383 C.ar      1 <0>        -0.2093
      6 C5         -2.5274    3.4439    4.4148 C.ar      1 <0>        -0.1481
      7 C6         -2.5842    4.8408    4.4886 C.ar      1 <0>        -0.0545
      8 C7         -2.0161    5.6142    3.4693 C.ar      1 <0>        -0.0596
      9 C8         -1.4047    4.9979    2.4002 C.ar      1 <0>        -0.1509
     10 N1         -3.1905    5.4452    5.5481 N.2       1 <0>        -0.0946
     11 C9         -4.3514    5.0085    5.9765 C.2       1 <0>         0.0954
     12 C10        -5.0465    5.6272    7.1259 C.2       1 <0>        -0.1207
     13 C11        -4.6570    6.6982    7.9194 C.2       1 <0>        -0.0383
     14 C12        -5.3892    7.2830    9.0623 C.ar      1 <0>        -0.1233
     15 C13        -6.6049    6.9835    9.6710 C.ar      1 <0>        -0.0555
     16 C14        -7.0320    7.7305   10.7497 C.ar      1 <0>        -0.1605
     17 C15        -6.2541    8.7741   11.2238 C.ar      1 <0>        -0.0787
     18 C16        -5.0475    9.0796   10.6274 C.ar      1 <0>        -0.1638
     19 C17        -4.5993    8.3387    9.5396 C.ar      1 <0>         0.0806
     20 N2         -3.4475    8.4311    8.7682 N.am      1 <0>        -0.3096
     21 C18        -3.4250    7.4908    7.8083 C.2       1 <0>         0.3398
     22 O2         -2.5400    7.3267    6.9877 O.2       1 <0>        -0.2706
     23 S1         -6.5233    4.6266    7.2165 S.3       1 <0>         0.1964
     24 C19        -6.1774    3.5270    5.8550 C.2       1 <0>         0.2225
     25 O3         -6.8572    2.6078    5.4408 O.2       1 <0>        -0.2660
     26 N3         -4.9863    3.9544    5.3932 N.am      1 <0>        -0.3620
     27 H1          0.0021   -0.0041    0.0020 H         1 <0>         0.0877
     28 H2          1.0099    1.4631    0.0003 H         1 <0>         0.0896
     29 H3         -0.5399    1.4469   -0.8751 H         1 <0>         0.0891
     30 H4         -1.7514    1.2020    1.2746 H         1 <0>         0.0744
     31 H5         -0.2017    1.2182    2.1499 H         1 <0>         0.0761
     32 H6         -1.8781    1.7605    3.2781 H         1 <0>         0.1390
     33 H7         -2.9641    2.8426    5.1984 H         1 <0>         0.1391
     34 H8         -2.0574    6.6922    3.5211 H         1 <0>         0.1570
     35 H9         -0.9661    5.5936    1.6133 H         1 <0>         0.1500
     36 H10        -7.2110    6.1700    9.3006 H         1 <0>         0.1432
     37 H11        -7.9745    7.5015   11.2248 H         1 <0>         0.1387
     38 H12        -6.5950    9.3542   12.0686 H         1 <0>         0.1368
     39 H13        -4.4504    9.8960   11.0063 H         1 <0>         0.1356
     40 H14        -2.7467    9.0870    8.9079 H         1 <0>         0.2522
     41 H15        -4.5762    3.5062    4.6371 H         1 <0>         0.2618
@<TRIPOS>BOND
     1    1    2 1
     2    1   27 1
     3    1   28 1
     4    1   29 1
     5    2    3 1
     6    2   30 1
     7    2   31 1
     8    3    4 1
     9    4    9 ar
    10    4    5 ar
    11    5    6 ar
    12    5   32 1
    13    6    7 ar
    14    6   33 1
    15    7    8 ar
    16    7   10 1
    17    8    9 ar
    18    8   34 1
    19    9   35 1
    20   10   11 2
    21   11   26 1
    22   11   12 1
    23   12   13 2
    24   12   23 1
    25   13   21 1
    26   13   14 1
    27   14   19 ar
    28   14   15 ar
    29   15   16 ar
    30   15   36 1
    31   16   17 ar
    32   16   37 1
    33   17   18 ar
    34   17   38 1
    35   18   19 ar
    36   18   39 1
    37   19   20 1
    38   20   21 am
    39   20   40 1
    40   21   22 2
    41   23   24 1
    42   24   25 2
    43   24   26 am
    44   26   41 1
@<TRIPOS>MOLECULE
ZINC03982893
   41    44     0     0     0
SMALL
USER_CHARGES

@<TRIPOS>ATOM
      1 C1          0.8163   -6.3154   -0.1769 C.3       1 <0>        -0.2116
      2 C2          0.9259   -4.8073   -0.4109 C.3       1 <0>        -0.0176
      3 O1          0.0740   -4.1196    0.5075 O.3       1 <0>        -0.2090
      4 C3          0.0534   -2.7636    0.4324 C.ar      1 <0>         0.1022
      5 C4         -0.7540   -2.0345    1.2973 C.ar      1 <0>        -0.1479
      6 C5         -0.7791   -0.6595    1.2253 C.ar      1 <0>        -0.0702
      7 C6          0.0110    0.0038    0.2790 C.ar      1 <0>        -0.0609
      8 C7          0.8185   -0.7359   -0.5932 C.ar      1 <0>        -0.1449
      9 C8          0.8402   -2.1102   -0.5087 C.ar      1 <0>        -0.2065
     10 N1         -0.0099    1.3638    0.2035 N.2       1 <0>        -0.1719
     11 C9          1.1141    2.0323    0.0952 C.2       1 <0>         0.1374
     12 C10         1.1431    3.5081    0.0043 C.2       1 <0>        -0.1489
     13 C11         0.0898    4.4129    0.0128 C.2       1 <0>        -0.0239
     14 C12        -1.3543    4.1119   -0.0801 C.ar      1 <0>        -0.1181
     15 C13        -2.0769    2.9278   -0.1967 C.ar      1 <0>        -0.0599
     16 C14        -3.4545    2.9710   -0.2624 C.ar      1 <0>        -0.1695
     17 C15        -4.1147    4.1878   -0.2126 C.ar      1 <0>        -0.0783
     18 C16        -3.4079    5.3677   -0.0971 C.ar      1 <0>        -0.1683
     19 C17        -2.0193    5.3454   -0.0294 C.ar      1 <0>         0.0699
     20 N2         -1.0819    6.3642    0.0871 N.am      1 <0>        -0.3030
     21 C18         0.1695    5.8757    0.1225 C.2       1 <0>         0.3456
     22 O2          1.1911    6.5311    0.2247 O.2       1 <0>        -0.3123
     23 S1          2.8990    3.8126   -0.1170 S.3       1 <0>         0.2656
     24 C19         3.4619    2.1209   -0.0575 C.2       1 <0>         0.2058
     25 O3          4.6046    1.7076   -0.1062 O.2       1 <0>        -0.2619
     26 N3          2.3240    1.4088    0.0541 N.am      1 <0>        -0.3637
     27 H1          1.4661   -6.8399   -0.8774 H         1 <0>         0.0891
     28 H2          1.1198   -6.5476    0.8439 H         1 <0>         0.0900
     29 H3         -0.2151   -6.6329   -0.3304 H         1 <0>         0.0898
     30 H4          0.6223   -4.5751   -1.4317 H         1 <0>         0.0762
     31 H5          1.9572   -4.4898   -0.2574 H         1 <0>         0.0757
     32 H6         -1.3632   -2.5472    2.0270 H         1 <0>         0.1515
     33 H7         -1.4069   -0.0939    1.8979 H         1 <0>         0.1520
     34 H8          1.4263   -0.2294   -1.3284 H         1 <0>         0.1410
     35 H9          1.4658   -2.6817   -1.1783 H         1 <0>         0.1416
     36 H10        -1.5616    1.9795   -0.2352 H         1 <0>         0.1989
     37 H11        -4.0189    2.0547   -0.3533 H         1 <0>         0.1363
     38 H12        -5.1932    4.2135   -0.2642 H         1 <0>         0.1338
     39 H13        -3.9344    6.3099   -0.0592 H         1 <0>         0.1332
     40 H14        -1.3027    7.3073    0.1403 H         1 <0>         0.2535
     41 H15         2.3668    0.4411    0.1053 H         1 <0>         0.2595
@<TRIPOS>BOND
     1    1    2 1
     2    1   27 1
     3    1   28 1
     4    1   29 1
     5    2    3 1
     6    2   30 1
     7    2   31 1
     8    3    4 1
     9    4    9 ar
    10    4    5 ar
    11    5    6 ar
    12    5   32 1
    13    6    7 ar
    14    6   33 1
    15    7    8 ar
    16    7   10 1
    17    8    9 ar
    18    8   34 1
    19    9   35 1
    20   10   11 2
    21   11   26 1
    22   11   12 1
    23   12   13 2
    24   12   23 1
    25   13   21 1
    26   13   14 1
    27   14   19 ar
    28   14   15 ar
    29   15   16 ar
    30   15   36 1
    31   16   17 ar
    32   16   37 1
    33   17   18 ar
    34   17   38 1
    35   18   19 ar
    36   18   39 1
    37   19   20 1
    38   20   21 am
    39   20   40 1
    40   21   22 2
    41   23   24 1
    42   24   25 2
    43   24   26 am
    44   26   41 1
@<TRIPOS>MOLECULE
ZINC03983253
   43    46     0     0     0
SMALL
USER_CHARGES

@<TRIPOS>ATOM
      1 C1          6.8498   11.4581    0.1018 C.3       1 <0>        -0.1701
      2 C2          5.3455   11.5476    0.1148 C.2       1 <0>         0.0731
      3 C3          4.7220   12.8029    0.1272 C.2       1 <0>        -0.2586
      4 C4          3.3668   12.8705    0.1381 C.2       1 <0>         0.1049
      5 N1          2.6476   11.7144    0.1382 N.pl3     1 <0>        -0.1065
      6 C5          3.2875   10.5045    0.1264 C.2       1 <0>         0.1083
      7 N2          4.6261   10.4496    0.1149 N.2       1 <0>        -0.1492
      8 N3          2.3557    9.5624    0.1353 N.2       1 <0>        -0.2194
      9 C6          1.1452   10.1251    0.1429 C.2       1 <0>        -0.0361
     10 N4          1.2739   11.4391    0.1487 N.2       1 <0>        -0.0771
     11 C7         -0.1402    9.3908    0.1501 C.2       1 <0>         0.4101
     12 O1         -1.1903   10.0035    0.1624 O.2       1 <0>        -0.2999
     13 N5         -0.1464    8.0430    0.1431 N.am      1 <0>        -0.3009
     14 N6         -1.3629    7.3481    0.1500 N.2       1 <0>         0.0330
     15 C8         -1.3704    6.0517    0.2481 C.2       1 <0>        -0.1170
     16 C9         -0.1159    5.3259    0.4902 C.ar      1 <0>        -0.1317
     17 C10         0.3176    4.2616   -0.4134 C.ar      1 <0>        -0.0056
     18 C11        -0.4421    3.8987   -1.5320 C.ar      1 <0>        -0.1195
     19 C12         0.0002    2.9044   -2.3531 C.ar      1 <0>        -0.1141
     20 C13         1.1929    2.2358   -2.0881 C.ar      1 <0>        -0.1277
     21 C14         1.9558    2.5634   -1.0088 C.ar      1 <0>        -0.1084
     22 C15         1.5335    3.5875   -0.1440 C.ar      1 <0>        -0.0473
     23 C16         2.2944    3.9530    0.9805 C.ar      1 <0>        -0.0860
     24 C17         1.8769    4.9454    1.8102 C.ar      1 <0>        -0.1531
     25 C18         0.6876    5.6377    1.5869 C.ar      1 <0>         0.0901
     26 O2          0.3089    6.6214    2.4425 O.3       1 <0>        -0.2866
     27 C19         2.6680   14.2056    0.1507 C.3       1 <0>        -0.1861
     28 H1          7.2038   11.4420   -0.9290 H         1 <0>         0.1052
     29 H2          7.2697   12.3221    0.6168 H         1 <0>         0.0911
     30 H3          7.1638   10.5453    0.6081 H         1 <0>         0.1117
     31 H4          5.3137   13.7064    0.1271 H         1 <0>         0.1631
     32 H5          0.6913    7.5542    0.1334 H         1 <0>         0.2446
     33 H6         -2.2987    5.5082    0.1516 H         1 <0>         0.1838
     34 H7         -1.3708    4.4068   -1.7459 H         1 <0>         0.1384
     35 H8         -0.5843    2.6285   -3.2183 H         1 <0>         0.1322
     36 H9          1.5199    1.4486   -2.7512 H         1 <0>         0.1310
     37 H10         2.8806    2.0391   -0.8185 H         1 <0>         0.1345
     38 H11         3.2217    3.4394    1.1871 H         1 <0>         0.1369
     39 H12         2.4826    5.2040    2.6662 H         1 <0>         0.1435
     40 H13        -0.1715    6.3037    3.2192 H         1 <0>         0.2362
     41 H14         2.5082   14.5223    1.1814 H         1 <0>         0.1103
     42 H15         3.2837   14.9428   -0.3645 H         1 <0>         0.0977
     43 H16         1.7068   14.1174   -0.3555 H         1 <0>         0.1212
@<TRIPOS>BOND
     1    1    2 1
     2    1   28 1
     3    1   29 1
     4    1   30 1
     5    2    7 2
     6    2    3 1
     7    3    4 2
     8    3   31 1
     9    4    5 1
    10    4   27 1
    11    5   10 1
    12    5    6 1
    13    6    7 1
    14    6    8 2
    15    8    9 1
    16    9   10 2
    17    9   11 1
    18   11   12 2
    19   11   13 am
    20   13   14 1
    21   13   32 1
    22   14   15 2
    23   15   16 1
    24   15   33 1
    25   16   25 ar
    26   16   17 ar
    27   17   22 ar
    28   17   18 ar
    29   18   19 ar
    30   18   34 1
    31   19   20 ar
    32   19   35 1
    33   20   21 ar
    34   20   36 1
    35   21   22 ar
    36   21   37 1
    37   22   23 ar
    38   23   24 ar
    39   23   38 1
    40   24   25 ar
    41   24   39 1
    42   25   26 1
    43   26   40 1
    44   27   41 1
    45   27   42 1
    46   27   43 1
@<TRIPOS>MOLECULE
ZINC03983413
   40    42     0     0     0
SMALL
USER_CHARGES

@<TRIPOS>ATOM
      1 C1         -5.7968   10.2563   -0.9990 C.3       1 <0>        -0.1778
      2 C2         -5.6157    9.7306    0.4016 C.ar      1 <0>        -0.0228
      3 C3         -6.6977    9.2377    1.0984 C.ar      1 <0>        -0.1664
      4 C4         -6.5364    8.7573    2.3923 C.ar      1 <0>         0.1010
      5 C5         -5.2842    8.7644    2.9900 C.ar      1 <0>        -0.1854
      6 C6         -4.1892    9.2509    2.2984 C.ar      1 <0>         0.0865
      7 C7         -4.3498    9.7368    0.9924 C.ar      1 <0>        -0.1527
      8 C8         -3.1894   10.2571    0.2490 C.2       1 <0>        -0.1248
      9 N1         -2.1406    9.5112    0.0779 N.2       1 <0>         0.0403
     10 N2         -2.1613    8.1699    0.4820 N.am      1 <0>        -0.3237
     11 C9         -1.1085    7.3706    0.2192 C.2       1 <0>         0.3183
     12 O1         -0.1428    7.8125   -0.3674 O.2       1 <0>        -0.2882
     13 C10        -1.1308    5.9278    0.6538 C.3       1 <0>        -0.0232
     14 H1         -1.3143    5.8694    1.7267 H         1 <0>         0.1213
     15 C11        -2.2355    5.1767   -0.1018 C.3       1 <0>        -0.0438
     16 O2         -2.2197    3.8098    0.3240 O.3       1 <0>        -0.2027
     17 C12        -1.0034    3.2018    0.3828 C.ar      1 <0>         0.0115
     18 C13        -0.9358    1.8170    0.4244 C.ar      1 <0>        -0.1210
     19 C14         0.2914    1.1855    0.4932 C.ar      1 <0>        -0.1302
     20 C15         1.4553    1.9314    0.5101 C.ar      1 <0>        -0.1282
     21 C16         1.3953    3.3113    0.4627 C.ar      1 <0>        -0.1174
     22 C17         0.1666    3.9516    0.3977 C.ar      1 <0>         0.0209
     23 O3          0.1235    5.3109    0.3442 O.3       1 <0>        -0.1707
     24 O4         -2.9631    9.2585    2.8821 O.3       1 <0>        -0.2899
     25 O5         -7.6090    8.2783    3.0745 O.3       1 <0>        -0.2874
     26 H2         -5.6604    9.4437   -1.7126 H         1 <0>         0.0986
     27 H3         -6.8001   10.6688   -1.1055 H         1 <0>         0.0880
     28 H4         -5.0607   11.0367   -1.1922 H         1 <0>         0.0888
     29 H5         -7.6750    9.2289    0.6389 H         1 <0>         0.1488
     30 H6         -5.1641    8.3895    3.9957 H         1 <0>         0.1566
     31 H7         -3.2111   11.2589   -0.1537 H         1 <0>         0.1856
     32 H8         -2.9334    7.8166    0.9510 H         1 <0>         0.2235
     33 H9         -2.0487    5.2298   -1.1744 H         1 <0>         0.1065
     34 H10        -3.2045    5.6212    0.1250 H         1 <0>         0.1199
     35 H11        -1.8434    1.2319    0.4075 H         1 <0>         0.1442
     36 H12         0.3416    0.1072    0.5294 H         1 <0>         0.1349
     37 H13         2.4131    1.4349    0.5607 H         1 <0>         0.1358
     38 H14         2.3060    3.8916    0.4766 H         1 <0>         0.1496
     39 H15        -2.7347   10.0969    3.3065 H         1 <0>         0.2417
     40 H16        -8.0768    8.9478    3.5921 H         1 <0>         0.2342
@<TRIPOS>BOND
     1    1    2 1
     2    1   26 1
     3    1   27 1
     4    1   28 1
     5    2    7 ar
     6    2    3 ar
     7    3    4 ar
     8    3   29 1
     9    4    5 ar
    10    4   25 1
    11    5    6 ar
    12    5   30 1
    13    6    7 ar
    14    6   24 1
    15    7    8 1
    16    8    9 2
    17    8   31 1
    18    9   10 1
    19   10   11 am
    20   10   32 1
    21   11   12 2
    22   11   13 1
    23   13   14 1
    24   13   23 1
    25   13   15 1
    26   15   16 1
    27   15   33 1
    28   15   34 1
    29   16   17 1
    30   17   22 ar
    31   17   18 ar
    32   18   19 ar
    33   18   35 1
    34   19   20 ar
    35   19   36 1
    36   20   21 ar
    37   20   37 1
    38   21   22 ar
    39   21   38 1
    40   22   23 1
    41   24   39 1
    42   25   40 1
@<TRIPOS>MOLECULE
ZINC03983414
   40    42     0     0     0
SMALL
USER_CHARGES

@<TRIPOS>ATOM
      1 C1         -1.9443    1.8291   -1.9223 C.3       1 <0>        -0.1809
      2 C2         -0.9181    2.1673   -0.8718 C.ar      1 <0>        -0.0217
      3 C3          0.2910    1.5066   -0.8510 C.ar      1 <0>        -0.1654
      4 C4          1.2424    1.8192    0.1124 C.ar      1 <0>         0.1033
      5 C5          0.9799    2.7944    1.0640 C.ar      1 <0>        -0.1916
      6 C6         -0.2323    3.4610    1.0566 C.ar      1 <0>         0.0904
      7 C7         -1.1939    3.1473    0.0849 C.ar      1 <0>        -0.1494
      8 C8         -2.4871    3.8525    0.0695 C.2       1 <0>        -0.0897
      9 N1         -2.5190    5.1483   -0.0046 N.2       1 <0>         0.0268
     10 N2         -1.3343    5.8676   -0.2096 N.am      1 <0>        -0.3439
     11 C9         -1.3783    7.2037   -0.3816 C.2       1 <0>         0.3123
     12 O1         -2.4438    7.7834   -0.3589 O.2       1 <0>        -0.2725
     13 C10        -0.1041    7.9774   -0.6021 C.3       1 <0>        -0.0252
     14 H1          0.4440    7.5510   -1.4423 H         1 <0>         0.1160
     15 C11         0.7616    7.9205    0.6638 C.3       1 <0>        -0.0422
     16 O2          1.9549    8.6748    0.4246 O.3       1 <0>        -0.2028
     17 C12         1.7998    9.8987   -0.1504 C.ar      1 <0>         0.0095
     18 C13         2.8369   10.8174   -0.0861 C.ar      1 <0>        -0.1194
     19 C14         2.6967   12.0618   -0.6706 C.ar      1 <0>        -0.1280
     20 C15         1.5228   12.3944   -1.3209 C.ar      1 <0>        -0.1257
     21 C16         0.4852   11.4841   -1.3875 C.ar      1 <0>        -0.1153
     22 C17         0.6189   10.2339   -0.8018 C.ar      1 <0>         0.0192
     23 O3         -0.4128    9.3489   -0.8731 O.3       1 <0>        -0.1674
     24 O4         -0.4903    4.4162    1.9868 O.3       1 <0>        -0.2778
     25 O5          2.4341    1.1673    0.1227 O.3       1 <0>        -0.2862
     26 H2         -2.5925    1.0338   -1.5543 H         1 <0>         0.0975
     27 H3         -2.5430    2.7128   -2.1432 H         1 <0>         0.0924
     28 H4         -1.4396    1.4961   -2.8293 H         1 <0>         0.0892
     29 H5          0.5016    0.7463   -1.5885 H         1 <0>         0.1491
     30 H6          1.7226    3.0334    1.8108 H         1 <0>         0.1560
     31 H7         -3.4087    3.2917    0.1198 H         1 <0>         0.1924
     32 H8         -0.4825    5.4041   -0.2278 H         1 <0>         0.2055
     33 H9          0.2152    8.3524    1.5024 H         1 <0>         0.1116
     34 H10         1.0196    6.8852    0.8865 H         1 <0>         0.1046
     35 H11         3.7551   10.5599    0.4208 H         1 <0>         0.1451
     36 H12         3.5056   12.7756   -0.6197 H         1 <0>         0.1369
     37 H13         1.4166   13.3673   -1.7776 H         1 <0>         0.1380
     38 H14        -0.4307   11.7463   -1.8962 H         1 <0>         0.1512
     39 H15        -0.1532    5.2923    1.7548 H         1 <0>         0.2250
     40 H16         3.1198    1.5927   -0.4101 H         1 <0>         0.2331
@<TRIPOS>BOND
     1    1    2 1
     2    1   26 1
     3    1   27 1
     4    1   28 1
     5    2    7 ar
     6    2    3 ar
     7    3    4 ar
     8    3   29 1
     9    4    5 ar
    10    4   25 1
    11    5    6 ar
    12    5   30 1
    13    6    7 ar
    14    6   24 1
    15    7    8 1
    16    8    9 2
    17    8   31 1
    18    9   10 1
    19   10   11 am
    20   10   32 1
    21   11   12 2
    22   11   13 1
    23   13   14 1
    24   13   23 1
    25   13   15 1
    26   15   16 1
    27   15   33 1
    28   15   34 1
    29   16   17 1
    30   17   22 ar
    31   17   18 ar
    32   18   19 ar
    33   18   35 1
    34   19   20 ar
    35   19   36 1
    36   20   21 ar
    37   20   37 1
    38   21   22 ar
    39   21   38 1
    40   22   23 1
    41   24   39 1
    42   25   40 1
@<TRIPOS>MOLECULE
ZINC03983467
   41    43     0     0     0
SMALL
USER_CHARGES

@<TRIPOS>ATOM
      1 C1          5.1451    7.2323   -1.3985 C.3       1 <0>        -0.0651
      2 O1          5.8092    6.1183   -0.7986 O.3       1 <0>        -0.1954
      3 C2          5.0237    5.1233   -0.3061 C.ar      1 <0>         0.0907
      4 C3          3.6499    5.2198   -0.3994 C.ar      1 <0>        -0.2120
      5 C4          2.8408    4.1928    0.1085 C.ar      1 <0>        -0.0478
      6 C5          3.4323    3.0746    0.7143 C.ar      1 <0>        -0.1654
      7 C6          4.8071    2.9842    0.7979 C.ar      1 <0>         0.0971
      8 C7          5.6072    4.0074    0.2917 C.ar      1 <0>         0.0411
      9 O2          6.9594    3.9165    0.3809 O.3       1 <0>        -0.2591
     10 O3          5.3819    1.8978    1.3801 O.3       1 <0>        -0.1945
     11 C8          4.5027    0.8870    1.8774 C.3       1 <0>        -0.0685
     12 C9          1.3836    4.2905    0.0119 C.2       1 <0>         0.0895
     13 C10         0.6332    3.1646   -0.2555 C.2       1 <0>        -0.2835
     14 C11         1.1262    1.8270   -0.6376 C.2       1 <0>         0.3542
     15 O4          2.2881    1.4963   -0.7805 O.2       1 <0>        -0.3286
     16 N1          0.0434    1.0429   -0.7977 N.am      1 <0>        -0.2829
     17 N2         -1.1253    1.7646   -0.5558 N.am      1 <0>        -0.1707
     18 C12        -0.8363    3.0365   -0.2214 C.2       1 <0>         0.3629
     19 O5         -1.6343    3.9136    0.0507 O.2       1 <0>        -0.3308
     20 C13        -2.4191    1.2384   -0.6439 C.ar      1 <0>         0.0676
     21 C14        -3.5175    2.0450   -0.3766 C.ar      1 <0>        -0.1319
     22 C15        -4.7936    1.5249   -0.4684 C.ar      1 <0>        -0.1361
     23 C16        -4.9779    0.1975   -0.8169 C.ar      1 <0>         0.0767
     24 C17        -3.8839   -0.6099   -1.0793 C.ar      1 <0>        -0.1382
     25 C18        -2.6062   -0.0925   -0.9933 C.ar      1 <0>        -0.1495
     26 F1         -6.2269   -0.3106   -0.9016 F         1 <0>        -0.1038
     27 H1          4.5463    6.8875   -2.2415 H         1 <0>         0.0711
     28 H2          4.4967    7.7081   -0.6628 H         1 <0>         0.0652
     29 H3          5.8858    7.9512   -1.7489 H         1 <0>         0.1127
     30 H4          3.1987    6.0846   -0.8631 H         1 <0>         0.1413
     31 H5          2.8131    2.2835    1.1108 H         1 <0>         0.1538
     32 H6          7.3266    4.2973    1.1904 H         1 <0>         0.2247
     33 H7          3.8991    0.4955    1.0586 H         1 <0>         0.0865
     34 H8          5.0887    0.0791    2.3154 H         1 <0>         0.1094
     35 H9          3.8495    1.3155    2.6376 H         1 <0>         0.0619
     36 H10         0.8960    5.2442    0.1500 H         1 <0>         0.1586
     37 H11         0.0719    0.1068   -1.0504 H         1 <0>         0.2737
     38 H12        -3.3740    3.0792   -0.1003 H         1 <0>         0.1888
     39 H13        -5.6483    2.1530   -0.2645 H         1 <0>         0.1541
     40 H14        -4.0298   -1.6449   -1.3509 H         1 <0>         0.1498
     41 H15        -1.7532   -0.7227   -1.1973 H         1 <0>         0.1320
@<TRIPOS>BOND
     1    1    2 1
     2    1   27 1
     3    1   28 1
     4    1   29 1
     5    2    3 1
     6    3    8 ar
     7    3    4 ar
     8    4    5 ar
     9    4   30 1
    10    5    6 ar
    11    5   12 1
    12    6    7 ar
    13    6   31 1
    14    7    8 ar
    15    7   10 1
    16    8    9 1
    17    9   32 1
    18   10   11 1
    19   11   33 1
    20   11   34 1
    21   11   35 1
    22   12   13 2
    23   12   36 1
    24   13   18 1
    25   13   14 1
    26   14   15 2
    27   14   16 am
    28   16   17 1
    29   16   37 1
    30   17   18 am
    31   17   20 1
    32   18   19 2
    33   20   25 ar
    34   20   21 ar
    35   21   22 ar
    36   21   38 1
    37   22   23 ar
    38   22   39 1
    39   23   24 ar
    40   23   26 1
    41   24   25 ar
    42   24   40 1
    43   25   41 1
@<TRIPOS>MOLECULE
ZINC03983468
   41    43     0     0     0
SMALL
USER_CHARGES

@<TRIPOS>ATOM
      1 C1         -7.3174    1.8087   -1.3484 C.3       1 <0>        -0.0651
      2 O1         -7.1196    3.0824   -0.7315 O.3       1 <0>        -0.1954
      3 C2         -5.8774    3.3466   -0.2450 C.ar      1 <0>         0.0912
      4 C3         -4.8771    2.4024   -0.3601 C.ar      1 <0>        -0.2119
      5 C4         -3.5963    2.6762    0.1416 C.ar      1 <0>        -0.0477
      6 C5         -3.3397    3.9070    0.7633 C.ar      1 <0>        -0.1679
      7 C6         -4.3447    4.8473    0.8687 C.ar      1 <0>         0.0966
      8 C7         -5.6162    4.5707    0.3686 C.ar      1 <0>         0.0408
      9 O2         -6.6034    5.4969    0.4792 O.3       1 <0>        -0.2592
     10 O3         -4.0956    6.0432    1.4664 O.3       1 <0>        -0.1948
     11 C8         -2.7708    6.2602    1.9562 C.3       1 <0>        -0.0681
     12 C9         -2.5323    1.6783    0.0219 C.2       1 <0>         0.0888
     13 C10        -1.2410    2.0767   -0.2541 C.2       1 <0>        -0.2824
     14 C11        -0.0227    1.2437   -0.2430 C.2       1 <0>         0.3581
     15 O4          0.0412    0.0564    0.0139 O.2       1 <0>        -0.3295
     16 N1          1.0035    2.0486   -0.5776 N.am      1 <0>        -0.2835
     17 N2          0.5539    3.3494   -0.8027 N.am      1 <0>        -0.1700
     18 C12        -0.7779    3.4287   -0.6212 C.2       1 <0>         0.3585
     19 O5         -1.4680    4.4235   -0.7415 O.2       1 <0>        -0.3287
     20 C13         1.3736    4.4239   -1.1666 C.ar      1 <0>         0.0666
     21 C14         0.8213    5.6814   -1.3721 C.ar      1 <0>        -0.1343
     22 C15         1.6327    6.7414   -1.7259 C.ar      1 <0>        -0.1362
     23 C16         2.9946    6.5487   -1.8865 C.ar      1 <0>         0.0770
     24 C17         3.5466    5.2944   -1.6877 C.ar      1 <0>        -0.1379
     25 C18         2.7395    4.2328   -1.3282 C.ar      1 <0>        -0.1488
     26 F1          3.7858    7.5858   -2.2382 F         1 <0>        -0.1034
     27 H1         -7.1119    1.0191   -0.6257 H         1 <0>         0.0655
     28 H2         -8.3487    1.7276   -1.6918 H         1 <0>         0.1129
     29 H3         -6.6425    1.7080   -2.1984 H         1 <0>         0.0712
     30 H4         -5.0803    1.4545   -0.8360 H         1 <0>         0.1418
     31 H5         -2.3561    4.1204    1.1550 H         1 <0>         0.1535
     32 H6         -7.1223    5.4236    1.2918 H         1 <0>         0.2250
     33 H7         -2.0624    6.1922    1.1306 H         1 <0>         0.0840
     34 H8         -2.7081    7.2501    2.4082 H         1 <0>         0.1101
     35 H9         -2.5314    5.5038    2.7036 H         1 <0>         0.0631
     36 H10        -2.7583    0.6300    0.1497 H         1 <0>         0.1603
     37 H11         1.9276    1.7631   -0.6521 H         1 <0>         0.2748
     38 H12        -0.2414    5.8312   -1.2509 H         1 <0>         0.1877
     39 H13         1.2042    7.7204   -1.8819 H         1 <0>         0.1546
     40 H14         4.6089    5.1462   -1.8135 H         1 <0>         0.1502
     41 H15         3.1704    3.2547   -1.1732 H         1 <0>         0.1328
@<TRIPOS>BOND
     1    1    2 1
     2    1   27 1
     3    1   28 1
     4    1   29 1
     5    2    3 1
     6    3    8 ar
     7    3    4 ar
     8    4    5 ar
     9    4   30 1
    10    5    6 ar
    11    5   12 1
    12    6    7 ar
    13    6   31 1
    14    7    8 ar
    15    7   10 1
    16    8    9 1
    17    9   32 1
    18   10   11 1
    19   11   33 1
    20   11   34 1
    21   11   35 1
    22   12   13 2
    23   12   36 1
    24   13   18 1
    25   13   14 1
    26   14   15 2
    27   14   16 am
    28   16   17 1
    29   16   37 1
    30   17   18 am
    31   17   20 1
    32   18   19 2
    33   20   25 ar
    34   20   21 ar
    35   21   22 ar
    36   21   38 1
    37   22   23 ar
    38   22   39 1
    39   23   24 ar
    40   23   26 1
    41   24   25 ar
    42   24   40 1
    43   25   41 1
@<TRIPOS>MOLECULE
ZINC03985039
   44    46     0     0     0
SMALL
USER_CHARGES

@<TRIPOS>ATOM
      1 C1          2.4053    2.9884    0.1933 C.3       1 <0>        -0.0649
      2 N1          0.9749    3.3026    0.1568 N.am      1 <0>        -0.2925
      3 C2          0.0792    2.2944    0.1257 C.2       1 <0>         0.3343
      4 O1          0.4446    1.1338    0.1281 O.2       1 <0>        -0.2777
      5 C3         -1.3537    2.6365    0.0826 C.3       1 <0>        -0.2297
      6 C4         -2.3285    1.6570    0.0435 C.2       1 <0>         0.1621
      7 C5         -4.7553    1.0512    0.1013 C.3       1 <0>        -0.0616
      8 C6         -6.0734    1.8180    0.2255 C.3       1 <0>        -0.0942
      9 C7         -7.2247    0.8461    0.1950 C.2       1 <0>        -0.2154
     10 C8         -7.9429    0.4929   -0.8828 C.2       1 <0>        -0.0319
     11 N2         -8.9056   -0.4114   -0.5263 N.pl3     1 <0>        -0.1834
     12 H1         -9.5468   -0.8116   -1.1341 H         1 <0>         0.2555
     13 C9         -8.8282   -0.6689    0.8264 C.ar      1 <0>         0.0013
     14 C10        -7.7678    0.1029    1.3346 C.ar      1 <0>        -0.0757
     15 C11        -7.4569    0.0518    2.6949 C.ar      1 <0>        -0.1302
     16 C12        -8.1869   -0.7696    3.5311 C.ar      1 <0>         0.0665
     17 C13        -9.2316   -1.5374    3.0237 C.ar      1 <0>        -0.1213
     18 C14        -9.5515   -1.4895    1.6850 C.ar      1 <0>        -0.1145
     19 O2         -7.8844   -0.8287    4.8556 O.3       1 <0>        -0.2832
     20 C15        -1.7020    4.0686    0.0892 C.2       1 <0>         0.3363
     21 O3         -2.8636    4.4292    0.0599 O.2       1 <0>        -0.3397
     22 N3         -0.6980    4.9688    0.1225 N.am      1 <0>        -0.2814
     23 C16         0.5861    4.5854    0.1547 C.2       1 <0>         0.3875
     24 O4          1.4433    5.4465    0.1837 O.2       1 <0>        -0.2865
     25 C17        -1.0181    6.3984    0.1232 C.3       1 <0>        -0.0691
     26 H2          2.5399    1.9067    0.1895 H         1 <0>         0.1310
     27 H3          2.8942    3.4184   -0.6809 H         1 <0>         0.1170
     28 H4          2.8461    3.4062    1.0984 H         1 <0>         0.1199
     29 H5         -2.0474    0.6191   -0.0570 H         1 <0>         0.2344
     30 H6         -1.6470    2.7237   -0.8694 H         1 <0>         0.1810
     31 H7         -4.7418    0.5017   -0.8399 H         1 <0>         0.1315
     32 H8         -4.6622    0.3517    0.9319 H         1 <0>         0.1426
     33 H9         -6.0868    2.3676    1.1667 H         1 <0>         0.1127
     34 H10        -6.1664    2.5176   -0.6052 H         1 <0>         0.0998
     35 H11        -7.7838    0.8668   -1.8835 H         1 <0>         0.1685
     36 H12        -6.6470    0.6471    3.0899 H         1 <0>         0.1304
     37 H13        -9.7965   -2.1765    3.6860 H         1 <0>         0.1556
     38 H14       -10.3643   -2.0888    1.3021 H         1 <0>         0.1425
     39 H15        -7.2336   -1.5076    5.0805 H         1 <0>         0.2291
     40 H16        -1.0699    6.7596   -0.9039 H         1 <0>         0.1103
     41 H17        -1.9796    6.5551    0.6123 H         1 <0>         0.1218
     42 H18        -0.2433    6.9441    0.6616 H         1 <0>         0.1410
     43 N4         -3.6473    2.0673    0.1375 N.pl3     1 <0>        -0.1866
     44 H19        -3.8689    3.0654    0.2320 H         1 <0>         0.3266
@<TRIPOS>BOND
     1    1    2 1
     2    1   26 1
     3    1   27 1
     4    1   28 1
     5    2   23 am
     6    2    3 am
     7    3    4 2
     8    3    5 1
     9    5   20 1
    10    5   30 1
    11    5    6 1
    12    6   29 1
    13    6   43 2
    14    7    8 1
    15    7   31 1
    16    7   32 1
    17    7   43 1
    18    8    9 1
    19    8   33 1
    20    8   34 1
    21    9   14 1
    22    9   10 2
    23   10   11 1
    24   10   35 1
    25   11   12 1
    26   11   13 1
    27   13   18 ar
    28   13   14 ar
    29   14   15 ar
    30   15   16 ar
    31   15   36 1
    32   16   17 ar
    33   16   19 1
    34   17   18 ar
    35   17   37 1
    36   18   38 1
    37   19   39 1
    38   20   21 2
    39   20   22 am
    40   22   23 am
    41   22   25 1
    42   23   24 2
    43   25   40 1
    44   25   41 1
    45   25   42 1
    46   43   44 1
@<TRIPOS>MOLECULE
ZINC03985039
   43    45     0     0     0
SMALL
USER_CHARGES

@<TRIPOS>ATOM
      1 C1          2.4138    1.2077    0.0421 C.3       1 <0>        -0.0595
      2 N1          1.1337    1.9200    0.0326 N.am      1 <0>        -0.3093
      3 C2         -0.0145    1.2120    0.0383 C.2       1 <0>         0.3386
      4 O1          0.0017   -0.0045    0.0516 O.2       1 <0>        -0.3172
      5 C3         -1.2891    1.9517    0.0217 C.3       1 <0>        -0.1781
      6 C4         -2.5051    1.2939    0.0207 C.2       1 <0>        -0.0831
      7 N2         -3.6509    1.9953    0.1316 N.2       1 <0>        -0.1645
      8 C5         -4.9395    1.2982    0.1305 C.3       1 <0>        -0.0977
      9 C6         -6.0713    2.3186    0.2678 C.3       1 <0>        -0.0733
     10 C7         -7.3968    1.6016    0.2667 C.2       1 <0>        -0.1665
     11 C8         -8.1914    1.3943   -0.7953 C.2       1 <0>        -0.0669
     12 N3         -9.3115    0.7080   -0.4133 N.pl3     1 <0>        -0.2014
     13 H1        -10.0317    0.4424   -1.0061 H         1 <0>         0.2409
     14 C9         -9.2636    0.4501    0.9407 C.ar      1 <0>        -0.0014
     15 C10        -8.0591    0.9932    1.4231 C.ar      1 <0>        -0.0753
     16 C11        -7.7404    0.8898    2.7786 C.ar      1 <0>        -0.1053
     17 C12        -8.6071    0.2407    3.6355 C.ar      1 <0>         0.0394
     18 C13        -9.7954   -0.3017    3.1537 C.ar      1 <0>        -0.1305
     19 C14       -10.1231   -0.1994    1.8199 C.ar      1 <0>        -0.1324
     20 O2         -8.2989    0.1310    4.9555 O.3       1 <0>        -0.2891
     21 C15        -1.2107    3.4234    0.0125 C.2       1 <0>         0.3177
     22 O3         -2.2199    4.1028    0.0033 O.2       1 <0>        -0.2738
     23 N4          0.0103    3.9968    0.0084 N.am      1 <0>        -0.3168
     24 C16         1.1303    3.2603    0.0180 C.2       1 <0>         0.4025
     25 O4          2.1993    3.8385    0.0136 O.2       1 <0>        -0.3602
     26 C17         0.1148    5.4580   -0.0074 C.3       1 <0>        -0.0586
     27 H2          2.2316    0.1331    0.0532 H         1 <0>         0.1193
     28 H3          2.9826    1.4706   -0.8498 H         1 <0>         0.0971
     29 H4          2.9798    1.4894    0.9301 H         1 <0>         0.1001
     30 H5         -2.5370    0.2181   -0.0689 H         1 <0>         0.1432
     31 H6         -1.5699    2.1107   -0.9248 H         1 <0>         0.1737
     32 H7         -5.0554    0.7506   -0.8047 H         1 <0>         0.0810
     33 H8         -4.9758    0.6006    0.9671 H         1 <0>         0.0922
     34 H9         -5.9553    2.8663    1.2030 H         1 <0>         0.1064
     35 H10        -6.0349    3.0163   -0.5689 H         1 <0>         0.0955
     36 H11        -7.9777    1.7205   -1.8025 H         1 <0>         0.1666
     37 H12        -6.8192    1.3104    3.1538 H         1 <0>         0.1429
     38 H13       -10.4665   -0.8072    3.8321 H         1 <0>         0.1399
     39 H14       -11.0478   -0.6232    1.4569 H         1 <0>         0.1279
     40 H15        -7.7961   -0.6647    5.1772 H         1 <0>         0.2205
     41 H16         0.1421    5.8092   -1.0389 H         1 <0>         0.0874
     42 H17        -0.7478    5.8894    0.5006 H         1 <0>         0.1131
     43 H18         1.0277    5.7626    0.5044 H         1 <0>         0.1148
@<TRIPOS>BOND
     1    1    2 1
     2    1   27 1
     3    1   28 1
     4    1   29 1
     5    2   24 am
     6    2    3 am
     7    3    4 2
     8    3    5 1
     9    5   21 1
    10    5   31 1
    11    5    6 1
    12    6   30 1
    13    6    7 2
    14    7    8 1
    15    8    9 1
    16    8   32 1
    17    8   33 1
    18    9   10 1
    19    9   34 1
    20    9   35 1
    21   10   15 1
    22   10   11 2
    23   11   12 1
    24   11   36 1
    25   12   13 1
    26   12   14 1
    27   14   19 ar
    28   14   15 ar
    29   15   16 ar
    30   16   17 ar
    31   16   37 1
    32   17   18 ar
    33   17   20 1
    34   18   19 ar
    35   18   38 1
    36   19   39 1
    37   20   40 1
    38   21   22 2
    39   21   23 am
    40   23   24 am
    41   23   26 1
    42   24   25 2
    43   26   41 1
    44   26   42 1
    45   26   43 1
@<TRIPOS>MOLECULE
ZINC03986791
   40    42     0     0     0
SMALL
USER_CHARGES

@<TRIPOS>ATOM
      1 C1        -12.2622    3.0349   -1.0648 C.3       1 <0>        -0.1908
      2 C2        -10.8761    2.4899   -0.8353 C.ar      1 <0>         0.0049
      3 C3         -9.9883    3.1435    0.0088 C.ar      1 <0>        -0.1508
      4 C4         -8.7292    2.6159    0.2017 C.ar      1 <0>        -0.0352
      5 N1         -8.3593    1.5001   -0.4181 N.ar      1 <0>         0.1184
      6 C5         -9.1856    0.8511   -1.2313 C.ar      1 <0>         0.0099
      7 C6        -10.4603    1.3237   -1.4629 C.ar      1 <0>        -0.1021
      8 C7        -11.3918    0.5820   -2.3866 C.3       1 <0>        -0.1766
      9 C8         -7.1004    1.0052   -0.2096 C.2       1 <0>         0.0326
     10 C9         -6.0388    1.8545   -0.0307 C.2       1 <0>        -0.3826
     11 S1         -4.6898    0.7037    0.1838 S.3       1 <0>         0.0357
     12 C10        -5.6301   -0.8069    0.0319 C.2       1 <0>         0.2403
     13 O1         -5.2439   -1.9601    0.0939 O.2       1 <0>        -0.2921
     14 N2         -6.8824   -0.3376   -0.1760 N.2       1 <0>        -0.3977
     15 C11        -6.0161    3.3174   -0.0239 C.2       1 <0>        -0.1018
     16 N3         -4.9052    3.9504    0.2253 N.2       1 <0>         0.0197
     17 N4         -3.7748    3.2405    0.6508 N.am      1 <0>        -0.3195
     18 C12        -2.5890    3.8700    0.7696 C.2       1 <0>         0.3597
     19 O2         -2.5004    5.0540    0.5075 O.2       1 <0>        -0.3290
     20 C13        -1.3945    3.1199    1.2193 C.ar      1 <0>        -0.0898
     21 C14        -1.4732    1.7562    1.5204 C.ar      1 <0>        -0.1643
     22 C15        -0.3349    1.0966    1.9408 C.ar      1 <0>        -0.0503
     23 N5          0.8147    1.7325    2.0499 N.ar      1 <0>        -0.1524
     24 C16         0.9338    3.0155    1.7716 C.ar      1 <0>        -0.0572
     25 C17        -0.1545    3.7537    1.3494 C.ar      1 <0>        -0.1312
     26 H1        -12.9447    2.6147   -0.3261 H         1 <0>         0.1136
     27 H2        -12.2462    4.1205   -0.9687 H         1 <0>         0.1024
     28 H3        -12.5981    2.7636   -2.0656 H         1 <0>         0.1053
     29 H4        -10.2822    4.0528    0.5119 H         1 <0>         0.1768
     30 H5         -8.0350    3.1168    0.8602 H         1 <0>         0.2149
     31 H6         -8.8555   -0.0557   -1.7163 H         1 <0>         0.2248
     32 H7        -11.9650   -0.1481   -1.8152 H         1 <0>         0.1101
     33 H8        -12.0732    1.2890   -2.8599 H         1 <0>         0.1002
     34 H9        -10.8109    0.0687   -3.1529 H         1 <0>         0.1039
     35 H10        -6.9203    3.8725   -0.2254 H         1 <0>         0.1624
     36 H11        -3.8456    2.2959    0.8599 H         1 <0>         0.2444
     37 H12        -2.4107    1.2279    1.4290 H         1 <0>         0.1529
     38 H13        -0.3864    0.0444    2.1791 H         1 <0>         0.1660
     39 H14         1.8956    3.4959    1.8748 H         1 <0>         0.1632
     40 H15        -0.0495    4.8045    1.1227 H         1 <0>         0.1612
@<TRIPOS>BOND
     1    1    2 1
     2    1   26 1
     3    1   27 1
     4    1   28 1
     5    2    7 ar
     6    2    3 ar
     7    3    4 ar
     8    3   29 1
     9    4    5 ar
    10    4   30 1
    11    5    6 ar
    12    5    9 1
    13    6    7 ar
    14    6   31 1
    15    7    8 1
    16    8   32 1
    17    8   33 1
    18    8   34 1
    19    9   14 1
    20    9   10 2
    21   10   11 1
    22   10   15 1
    23   11   12 1
    24   12   13 2
    25   12   14 1
    26   15   16 2
    27   15   35 1
    28   16   17 1
    29   17   18 am
    30   17   36 1
    31   18   19 2
    32   18   20 1
    33   20   25 ar
    34   20   21 ar
    35   21   22 ar
    36   21   37 1
    37   22   23 ar
    38   22   38 1
    39   23   24 ar
    40   24   25 ar
    41   24   39 1
    42   25   40 1
@<TRIPOS>MOLECULE
ZINC03987088
   44    46     0     0     0
SMALL
USER_CHARGES

@<TRIPOS>ATOM
      1 C1         15.1667   -3.1093    6.5627 C.3       1 <0>        -0.0666
      2 O1         14.1802   -4.1386    6.4660 O.3       1 <0>        -0.1955
      3 C2         12.9337   -3.7641    6.0717 C.ar      1 <0>         0.0814
      4 C3         12.6679   -2.4341    5.7846 C.ar      1 <0>        -0.2006
      5 C4         11.4017   -2.0454    5.3832 C.ar      1 <0>        -0.0923
      6 C5         10.3920   -2.9772    5.2655 C.ar      1 <0>        -0.1752
      7 C6         10.6452   -4.3213    5.5516 C.ar      1 <0>        -0.0944
      8 C7         11.9251   -4.7135    5.9623 C.ar      1 <0>         0.0649
      9 O2         12.1807   -6.0173    6.2484 O.3       1 <0>        -0.2722
     10 C8          9.5687   -5.3204    5.4275 C.2       1 <0>        -0.1024
     11 N1          8.5778   -5.1093    4.6162 N.2       1 <0>         0.0185
     12 N2          8.6444   -4.0637    3.6862 N.am      1 <0>        -0.3431
     13 C9          7.5739   -3.7737    2.9205 C.2       1 <0>         0.3034
     14 O3          6.5526   -4.4181    3.0366 O.2       1 <0>        -0.3285
     15 C10         7.6455   -2.6489    1.9200 C.3       1 <0>        -0.0253
     16 N3          6.3640   -2.5364    1.2191 N.am      1 <0>        -0.3779
     17 C11         6.1944   -1.5924    0.2723 C.2       1 <0>         0.3558
     18 O4          7.1049   -0.8341   -0.0001 O.2       1 <0>        -0.3746
     19 C12         4.9032   -1.4790   -0.4339 C.ar      1 <0>        -0.1285
     20 C13         3.8558   -2.3494   -0.1223 C.ar      1 <0>        -0.0960
     21 C14         2.6512   -2.2419   -0.7821 C.ar      1 <0>        -0.1240
     22 C15         2.4732   -1.2702   -1.7579 C.ar      1 <0>         0.0294
     23 C16         3.5154   -0.3976   -2.0737 C.ar      1 <0>        -0.0098
     24 C17         4.7253   -0.5007   -1.4154 C.ar      1 <0>        -0.0529
     25 O5          3.0894    0.4527   -3.0535 O.3       1 <0>        -0.2034
     26 C18         1.6527    0.3591   -3.0447 C.3       1 <0>         0.1063
     27 O6          1.3985   -0.9650   -2.5399 O.3       1 <0>        -0.2048
     28 H1         16.1132   -3.5424    6.8862 H         1 <0>         0.1147
     29 H2         15.2969   -2.6381    5.5884 H         1 <0>         0.0675
     30 H3         14.8425   -2.3622    7.2871 H         1 <0>         0.0715
     31 H4         13.4529   -1.6978    5.8742 H         1 <0>         0.1436
     32 H5         11.2033   -1.0071    5.1615 H         1 <0>         0.1389
     33 H6          9.4056   -2.6681    4.9525 H         1 <0>         0.1500
     34 H7         12.4085   -6.5522    5.4757 H         1 <0>         0.2303
     35 H8          9.6045   -6.2281    6.0115 H         1 <0>         0.1986
     36 H9          9.4610   -3.5485    3.5933 H         1 <0>         0.2315
     37 H10         8.4371   -2.8536    1.1993 H         1 <0>         0.1148
     38 H11         7.8592   -1.7144    2.4387 H         1 <0>         0.1111
     39 H12         5.6376   -3.1414    1.4365 H         1 <0>         0.2492
     40 H13         3.9905   -3.1068    0.6358 H         1 <0>         0.1439
     41 H14         1.8426   -2.9155   -0.5394 H         1 <0>         0.1491
     42 H15         5.5327    0.1738   -1.6593 H         1 <0>         0.1694
     43 H16         1.2558    0.4668   -4.0541 H         1 <0>         0.1332
     44 H17         1.2241    1.1105   -2.3815 H         1 <0>         0.0908
@<TRIPOS>BOND
     1    1    2 1
     2    1   28 1
     3    1   29 1
     4    1   30 1
     5    2    3 1
     6    3    8 ar
     7    3    4 ar
     8    4    5 ar
     9    4   31 1
    10    5    6 ar
    11    5   32 1
    12    6    7 ar
    13    6   33 1
    14    7    8 ar
    15    7   10 1
    16    8    9 1
    17    9   34 1
    18   10   11 2
    19   10   35 1
    20   11   12 1
    21   12   13 am
    22   12   36 1
    23   13   14 2
    24   13   15 1
    25   15   16 1
    26   15   37 1
    27   15   38 1
    28   16   17 am
    29   16   39 1
    30   17   18 2
    31   17   19 1
    32   19   24 ar
    33   19   20 ar
    34   20   21 ar
    35   20   40 1
    36   21   22 ar
    37   21   41 1
    38   22   27 1
    39   22   23 ar
    40   23   24 ar
    41   23   25 1
    42   24   42 1
    43   25   26 1
    44   26   27 1
    45   26   43 1
    46   26   44 1
@<TRIPOS>MOLECULE
ZINC03987655
   48    50     0     0     0
SMALL
USER_CHARGES

@<TRIPOS>ATOM
      1 C1         -0.2467   11.1224    3.5038 C.3       1 <0>        -0.2020
      2 C2         -0.9574   11.9738    2.4499 C.3       1 <0>        -0.0816
      3 C3         -0.0722   12.0913    1.2075 C.3       1 <0>        -0.2015
      4 C4         -2.2840   11.3129    2.0702 C.3       1 <0>         0.0007
      5 N1         -2.0261    9.9773    1.5262 N.am      1 <0>        -0.3635
      6 C5         -3.0535    9.2043    1.1220 C.2       1 <0>         0.3750
      7 O1         -4.1943    9.6154    1.2087 O.2       1 <0>        -0.3971
      8 C6         -2.7934    7.8573    0.5734 C.ar      1 <0>        -0.1809
      9 C7         -3.8489    7.0968    0.0427 C.ar      1 <0>         0.1783
     10 N2         -3.6105    5.8859   -0.4501 N.ar      1 <0>        -0.2051
     11 C8         -2.3847    5.4002   -0.4464 C.ar      1 <0>        -0.0110
     12 C9         -1.3312    6.1522    0.0861 C.ar      1 <0>        -0.0896
     13 N3         -1.5604    7.3618    0.5800 N.ar      1 <0>        -0.0787
     14 C10         0.0424    5.5993    0.0925 C.ar      1 <0>        -0.0119
     15 C11         0.2785    4.3184    0.5608 C.ar      1 <0>        -0.1143
     16 C12         1.5653    3.7927    0.5703 C.ar      1 <0>        -0.1278
     17 C13         2.6266    4.5191    0.1213 C.ar      1 <0>        -0.1085
     18 C14         2.4325    5.8240   -0.3630 C.ar      1 <0>        -0.0356
     19 C15         1.1279    6.3751   -0.3797 C.ar      1 <0>        -0.0143
     20 C16         0.9356    7.6775   -0.8626 C.ar      1 <0>        -0.1064
     21 C17         2.0041    8.3978   -1.3041 C.ar      1 <0>        -0.1297
     22 C18         3.2874    7.8554   -1.2934 C.ar      1 <0>        -0.1225
     23 C19         3.5109    6.5946   -0.8316 C.ar      1 <0>        -0.1189
     24 N4         -5.1334    7.6071    0.0337 N.pl3     1 <0>        -0.3712
     25 C20        -1.2268   13.3687    3.0180 C.3       1 <0>         0.0111
     26 O2          0.0123   13.9860    3.3726 O.3       1 <0>        -0.3526
     27 H1         -0.0548   10.1287    3.0991 H         1 <0>         0.0753
     28 H2          0.6984   11.5933    3.7744 H         1 <0>         0.0964
     29 H3         -0.8773   11.0387    4.3889 H         1 <0>         0.0758
     30 H4         -0.5785   12.6979    0.4567 H         1 <0>         0.0742
     31 H5          0.8729   12.5622    1.4780 H         1 <0>         0.0970
     32 H6          0.1197   11.0976    0.8028 H         1 <0>         0.0719
     33 H7         -2.7903   11.9195    1.3193 H         1 <0>         0.0917
     34 H8         -2.9147   11.2292    2.9552 H         1 <0>         0.0946
     35 H9         -1.1159    9.6493    1.4570 H         1 <0>         0.2478
     36 H10        -2.1937    4.4174   -0.8514 H         1 <0>         0.1743
     37 H11        -0.5455    3.7211    0.9222 H         1 <0>         0.1316
     38 H12         1.7264    2.7907    0.9399 H         1 <0>         0.1309
     39 H13         3.6184    4.0918    0.1377 H         1 <0>         0.1330
     40 H14        -0.0542    8.1091   -0.8801 H         1 <0>         0.1450
     41 H15         1.8538    9.4021   -1.6718 H         1 <0>         0.1285
     42 H16         4.1175    8.4455   -1.6525 H         1 <0>         0.1283
     43 H17         4.5116    6.1884   -0.8250 H         1 <0>         0.1324
     44 H18        -5.2741    8.5668    0.0432 H         1 <0>         0.2669
     45 H19        -5.8942    7.0056    0.0179 H         1 <0>         0.2283
     46 H20        -1.7331   13.9752    2.2671 H         1 <0>         0.0613
     47 H21        -1.8574   13.2850    3.9030 H         1 <0>         0.0625
     48 H22        -0.0825   14.8752    3.7406 H         1 <0>         0.2119
@<TRIPOS>BOND
     1    1    2 1
     2    1   27 1
     3    1   28 1
     4    1   29 1
     5    2    3 1
     6    2    4 1
     7    2   25 1
     8    3   30 1
     9    3   31 1
    10    3   32 1
    11    4    5 1
    12    4   33 1
    13    4   34 1
    14    5    6 am
    15    5   35 1
    16    6    7 2
    17    6    8 1
    18    8   13 ar
    19    8    9 ar
    20    9   10 ar
    21    9   24 1
    22   10   11 ar
    23   11   12 ar
    24   11   36 1
    25   12   13 ar
    26   12   14 1
    27   14   19 ar
    28   14   15 ar
    29   15   16 ar
    30   15   37 1
    31   16   17 ar
    32   16   38 1
    33   17   18 ar
    34   17   39 1
    35   18   23 ar
    36   18   19 ar
    37   19   20 ar
    38   20   21 ar
    39   20   40 1
    40   21   22 ar
    41   21   41 1
    42   22   23 ar
    43   22   42 1
    44   23   43 1
    45   24   44 1
    46   24   45 1
    47   25   26 1
    48   25   46 1
    49   25   47 1
    50   26   48 1
@<TRIPOS>MOLECULE
ZINC03987802
   41    43     0     0     0
SMALL
USER_CHARGES

@<TRIPOS>ATOM
      1 C1         -8.7769   10.2126    2.7575 C.3       1 <0>        -0.0664
      2 O1         -7.6952   10.7914    2.0247 O.3       1 <0>        -0.1833
      3 C2         -6.5819   10.0276    1.8607 C.ar      1 <0>        -0.0205
      4 C3         -6.5336    8.7492    2.3947 C.ar      1 <0>        -0.1468
      5 C4         -5.4040    7.9662    2.2323 C.ar      1 <0>        -0.2264
      6 C5         -4.3180    8.4477    1.5319 C.ar      1 <0>        -0.0485
      7 C6         -4.3500    9.7368    0.9934 C.ar      1 <0>        -0.2687
      8 C7         -5.4928   10.5288    1.1583 C.ar      1 <0>         0.2542
      9 C8         -3.1888   10.2579    0.2503 C.2       1 <0>        -0.0202
     10 N1         -2.3735    9.4373   -0.3384 N.2       1 <0>        -0.0653
     11 N2         -2.7186    8.0867   -0.4781 N.am      1 <0>        -0.3339
     12 C9         -1.8281    7.2128   -0.9878 C.2       1 <0>         0.3146
     13 O2         -0.7277    7.5957   -1.3256 O.2       1 <0>        -0.3185
     14 C10        -2.1994    5.7600   -1.1381 C.3       1 <0>        -0.0314
     15 H1         -2.5216    5.3610   -0.1762 H         1 <0>         0.1311
     16 C11        -3.3332    5.6189   -2.1628 C.3       1 <0>        -0.0445
     17 O3         -3.6508    4.2287   -2.2909 O.3       1 <0>        -0.2041
     18 C12        -2.6018    3.3717   -2.4246 C.ar      1 <0>         0.0195
     19 C13        -2.8256    2.0927   -2.9125 C.ar      1 <0>        -0.1257
     20 C14        -1.7720    1.2083   -3.0455 C.ar      1 <0>        -0.1398
     21 C15        -0.4909    1.5991   -2.7029 C.ar      1 <0>        -0.1365
     22 C16        -0.2602    2.8740   -2.2219 C.ar      1 <0>        -0.1233
     23 C17        -1.3137    3.7652   -2.0821 C.ar      1 <0>         0.0307
     24 O4         -1.0700    5.0198   -1.6140 O.3       1 <0>        -0.1715
     25 N3         -5.3640    6.6027    2.8071 N.pl3     1 <0>         0.5685
     26 O5         -6.3238    6.1723    3.4212 O.2       1 <0>        -0.4135
     27 O6         -4.3714    5.9111    2.6659 O.3       1 <0>        -0.4217
     28 H2         -9.5997   10.9252    2.8143 H         1 <0>         0.0884
     29 H3         -9.1145    9.3074    2.2527 H         1 <0>         0.0578
     30 H4         -8.4416    9.9636    3.7643 H         1 <0>         0.0587
     31 H5         -7.3816    8.3625    2.9405 H         1 <0>         0.1396
     32 H6         -3.4410    7.8306    1.4040 H         1 <0>         0.1461
     33 H7         -3.0162   11.3226    0.1955 H         1 <0>         0.1938
     34 H8         -3.5985    7.7805   -0.2079 H         1 <0>         0.2276
     35 H9         -3.0089    6.0122   -3.1263 H         1 <0>         0.1016
     36 H10        -4.2107    6.1663   -1.8188 H         1 <0>         0.1315
     37 H11        -3.8248    1.7862   -3.1844 H         1 <0>         0.1398
     38 H12        -1.9491    0.2117   -3.4220 H         1 <0>         0.1256
     39 H13         0.3309    0.9068   -2.8109 H         1 <0>         0.1264
     40 H14         0.7415    3.1765   -1.9544 H         1 <0>         0.1455
     41 O7         -5.5368   11.7816    0.6334 O.3       1 <0>        -0.4909
@<TRIPOS>BOND
     1    1    2 1
     2    1   28 1
     3    1   29 1
     4    1   30 1
     5    2    3 1
     6    3    8 ar
     7    3    4 ar
     8    4    5 ar
     9    4   31 1
    10    5    6 ar
    11    5   25 1
    12    6    7 ar
    13    6   32 1
    14    7    8 ar
    15    7    9 1
    16    8   41 1
    17    9   10 2
    18    9   33 1
    19   10   11 1
    20   11   12 am
    21   11   34 1
    22   12   13 2
    23   12   14 1
    24   14   15 1
    25   14   24 1
    26   14   16 1
    27   16   17 1
    28   16   35 1
    29   16   36 1
    30   17   18 1
    31   18   23 ar
    32   18   19 ar
    33   19   20 ar
    34   19   37 1
    35   20   21 ar
    36   20   38 1
    37   21   22 ar
    38   21   39 1
    39   22   23 ar
    40   22   40 1
    41   23   24 1
    42   25   26 2
    43   25   27 1
@<TRIPOS>MOLECULE
ZINC03987803
   41    43     0     0     0
SMALL
USER_CHARGES

@<TRIPOS>ATOM
      1 C1          8.6799    2.4551    0.1985 C.3       1 <0>        -0.0664
      2 O1          7.5843    3.3700    0.2672 O.3       1 <0>        -0.1830
      3 C2          6.3337    2.8439    0.1730 C.ar      1 <0>        -0.0195
      4 C3          6.1669    1.4765    0.0174 C.ar      1 <0>        -0.1468
      5 C4          4.8974    0.9339   -0.0797 C.ar      1 <0>        -0.2277
      6 C5          3.7858    1.7475   -0.0158 C.ar      1 <0>        -0.0488
      7 C6          3.9387    3.1283    0.1346 C.ar      1 <0>        -0.2657
      8 C7          5.2232    3.6770    0.2323 C.ar      1 <0>         0.2543
      9 C8          2.7535    4.0023    0.1962 C.2       1 <0>        -0.0215
     10 N1          1.6282    3.5389    0.6475 N.2       1 <0>        -0.0618
     11 N2          1.5858    2.2830    1.2668 N.am      1 <0>        -0.3339
     12 C9          0.4023    1.7504    1.6303 C.2       1 <0>         0.3151
     13 O2         -0.6315    2.3154    1.3409 O.2       1 <0>        -0.3189
     14 C10         0.3629    0.4499    2.3907 C.3       1 <0>        -0.0321
     15 H1          1.0387    0.5028    3.2443 H         1 <0>         0.1133
     16 C11         0.7827   -0.7021    1.4678 C.3       1 <0>        -0.0479
     17 O3          0.7213   -1.9210    2.2167 O.3       1 <0>        -0.1963
     18 C12        -0.3956   -2.1213    2.9683 C.ar      1 <0>         0.0211
     19 C13        -0.6896   -3.3979    3.4239 C.ar      1 <0>        -0.1268
     20 C14        -1.8167   -3.6160    4.1933 C.ar      1 <0>        -0.1398
     21 C15        -2.6540   -2.5627    4.5111 C.ar      1 <0>        -0.1398
     22 C16        -2.3674   -1.2885    4.0594 C.ar      1 <0>        -0.1247
     23 C17        -1.2385   -1.0630    3.2857 C.ar      1 <0>         0.0256
     24 O4         -0.9708    0.1969    2.8457 O.3       1 <0>        -0.1739
     25 N3          4.7318   -0.5277   -0.2457 N.pl3     1 <0>         0.5691
     26 O5          5.7114   -1.2497   -0.2966 O.2       1 <0>        -0.4095
     27 O6          3.6159   -1.0083   -0.3314 O.3       1 <0>        -0.4290
     28 H2          8.6032    1.7346    1.0128 H         1 <0>         0.0581
     29 H3          8.6546    1.9290   -0.7558 H         1 <0>         0.0586
     30 H4          9.6175    3.0039    0.2861 H         1 <0>         0.0887
     31 H5          7.0319    0.8315   -0.0288 H         1 <0>         0.1398
     32 H6          2.7974    1.3182   -0.0871 H         1 <0>         0.1413
     33 H7          2.8213    5.0283   -0.1342 H         1 <0>         0.1933
     34 H8          2.4083    1.7966    1.4340 H         1 <0>         0.2275
     35 H9          0.1031   -0.7582    0.6174 H         1 <0>         0.1061
     36 H10         1.8010   -0.5383    1.1152 H         1 <0>         0.1545
     37 H11        -0.0370   -4.2223    3.1774 H         1 <0>         0.1422
     38 H12        -2.0436   -4.6108    4.5473 H         1 <0>         0.1250
     39 H13        -3.5335   -2.7360    5.1135 H         1 <0>         0.1253
     40 H14        -3.0229   -0.4674    4.3093 H         1 <0>         0.1436
     41 O7          5.3831    5.0179    0.3848 O.3       1 <0>        -0.4887
@<TRIPOS>BOND
     1    1    2 1
     2    1   28 1
     3    1   29 1
     4    1   30 1
     5    2    3 1
     6    3    8 ar
     7    3    4 ar
     8    4    5 ar
     9    4   31 1
    10    5    6 ar
    11    5   25 1
    12    6    7 ar
    13    6   32 1
    14    7    8 ar
    15    7    9 1
    16    8   41 1
    17    9   10 2
    18    9   33 1
    19   10   11 1
    20   11   12 am
    21   11   34 1
    22   12   13 2
    23   12   14 1
    24   14   15 1
    25   14   24 1
    26   14   16 1
    27   16   17 1
    28   16   35 1
    29   16   36 1
    30   17   18 1
    31   18   23 ar
    32   18   19 ar
    33   19   20 ar
    34   19   37 1
    35   20   21 ar
    36   20   38 1
    37   21   22 ar
    38   21   39 1
    39   22   23 ar
    40   22   40 1
    41   23   24 1
    42   25   26 2
    43   25   27 1
@<TRIPOS>MOLECULE
ZINC03987897
   40    42     0     0     0
SMALL
USER_CHARGES

@<TRIPOS>ATOM
      1 C1          7.7047    3.4670    0.2445 C.3       1 <0>        -0.1427
      2 C2          6.3220    2.8757    0.1466 C.ar      1 <0>        -0.1985
      3 C3          6.1642    1.5109   -0.0072 C.ar      1 <0>        -0.0335
      4 C4          4.8985    0.9585   -0.0990 C.ar      1 <0>        -0.2530
      5 C5          3.7812    1.7646   -0.0312 C.ar      1 <0>        -0.0408
      6 C6          3.9272    3.1452    0.1182 C.ar      1 <0>        -0.2603
      7 C7          5.2112    3.7004    0.2103 C.ar      1 <0>         0.2578
      8 C8          2.7381    4.0133    0.1847 C.2       1 <0>        -0.0257
      9 N1          1.6171    3.5444    0.6411 N.2       1 <0>        -0.0615
     10 N2          1.5835    2.2883    1.2606 N.am      1 <0>        -0.3342
     11 C9          0.4042    1.7500    1.6293 C.2       1 <0>         0.3152
     12 O1         -0.6336    2.3101    1.3447 O.2       1 <0>        -0.3190
     13 C10         0.3745    0.4492    2.3896 C.3       1 <0>        -0.0321
     14 H1          1.0534    0.5053    3.2405 H         1 <0>         0.1133
     15 C11         0.7965   -0.7005    1.4647 C.3       1 <0>        -0.0479
     16 O2          0.7444   -1.9199    2.2136 O.3       1 <0>        -0.1961
     17 C12        -0.3685   -2.1260    2.9696 C.ar      1 <0>         0.0211
     18 C13        -0.6542   -3.4042    3.4261 C.ar      1 <0>        -0.1267
     19 C14        -1.7770   -3.6281    4.2000 C.ar      1 <0>        -0.1398
     20 C15        -2.6184   -2.5792    4.5214 C.ar      1 <0>        -0.1399
     21 C16        -2.3402   -1.3035    4.0688 C.ar      1 <0>        -0.1247
     22 C17        -1.2156   -1.0720    3.2906 C.ar      1 <0>         0.0255
     23 O3         -0.9561    0.1892    2.8498 O.3       1 <0>        -0.1740
     24 N3          4.7430   -0.5043   -0.2640 N.pl3     1 <0>         0.5689
     25 O4          5.7277   -1.2191   -0.3187 O.2       1 <0>        -0.4086
     26 O5          3.6304   -0.9931   -0.3450 O.3       1 <0>        -0.4303
     27 H2          8.0136    3.4977    1.2894 H         1 <0>         0.0656
     28 H3          8.4036    2.8526   -0.3231 H         1 <0>         0.0499
     29 H4          7.6970    4.4784   -0.1619 H         1 <0>         0.0974
     30 H5          7.0337    0.8721   -0.0564 H         1 <0>         0.1336
     31 H6          2.7952    1.3291   -0.0980 H         1 <0>         0.1397
     32 H7          2.7994    5.0395   -0.1462 H         1 <0>         0.1934
     33 H8          2.4091    1.8060    1.4241 H         1 <0>         0.2273
     34 H9          0.1138   -0.7599    0.6170 H         1 <0>         0.1061
     35 H10         1.8125   -0.5315    1.1081 H         1 <0>         0.1547
     36 H11         0.0017   -4.2252    3.1768 H         1 <0>         0.1423
     37 H12        -1.9975   -4.6242    4.5546 H         1 <0>         0.1250
     38 H13        -3.4946   -2.7572    5.1272 H         1 <0>         0.1252
     39 H14        -2.9989   -0.4858    4.3215 H         1 <0>         0.1435
     40 O6          5.3652    5.0412    0.3618 O.3       1 <0>        -0.5162
@<TRIPOS>BOND
     1    1    2 1
     2    1   27 1
     3    1   28 1
     4    1   29 1
     5    2    7 ar
     6    2    3 ar
     7    3    4 ar
     8    3   30 1
     9    4    5 ar
    10    4   24 1
    11    5    6 ar
    12    5   31 1
    13    6    7 ar
    14    6    8 1
    15    7   40 1
    16    8    9 2
    17    8   32 1
    18    9   10 1
    19   10   11 am
    20   10   33 1
    21   11   12 2
    22   11   13 1
    23   13   14 1
    24   13   23 1
    25   13   15 1
    26   15   16 1
    27   15   34 1
    28   15   35 1
    29   16   17 1
    30   17   22 ar
    31   17   18 ar
    32   18   19 ar
    33   18   36 1
    34   19   20 ar
    35   19   37 1
    36   20   21 ar
    37   20   38 1
    38   21   22 ar
    39   21   39 1
    40   22   23 1
    41   24   25 2
    42   24   26 1
@<TRIPOS>MOLECULE
ZINC03987997
   40    43     0     0     0
SMALL
USER_CHARGES

@<TRIPOS>ATOM
      1 C1          2.4514    2.9840   -1.5883 C.3       1 <0>        -0.0624
      2 O1          1.7753    3.0696   -0.3324 O.3       1 <0>        -0.2093
      3 C2          1.3057    4.2909    0.0333 C.ar      1 <0>         0.1352
      4 C3          1.5010    5.3862   -0.8053 C.ar      1 <0>        -0.2478
      5 C4          1.0297    6.6182   -0.4537 C.ar      1 <0>        -0.0157
      6 C5          0.3573    6.7880    0.7584 C.ar      1 <0>        -0.1188
      7 C6          0.1608    5.6890    1.6135 C.ar      1 <0>         0.0791
      8 C7          0.6426    4.4387    1.2372 C.ar      1 <0>        -0.2011
      9 N1         -0.5224    6.1265    2.7285 N.pl3     1 <0>        -0.1630
     10 H1         -0.7846    5.5658    3.4753 H         1 <0>         0.2588
     11 C8         -0.7786    7.4819    2.6267 C.2       1 <0>        -0.1380
     12 C9         -0.2542    7.9469    1.4216 C.2       1 <0>         0.0107
     13 N2         -0.3799    9.2452    1.0962 N.2       1 <0>        -0.1759
     14 C10        -0.9857   10.0838    1.8891 C.2       1 <0>         0.0429
     15 N3         -1.5174    9.6924    3.0763 N.am      1 <0>        -0.2144
     16 C11        -1.4317    8.4043    3.4727 C.2       1 <0>         0.3524
     17 O2         -1.9076    8.0460    4.5378 O.2       1 <0>        -0.3466
     18 N4         -2.1589   10.6312    3.8948 N.2       1 <0>        -0.0162
     19 C12        -3.1802   11.2964    3.4436 C.2       1 <0>        -0.0330
     20 C13        -3.7697   10.9459    2.1415 C.ar      1 <0>        -0.1762
     21 C14        -3.5715    9.6717    1.6013 C.ar      1 <0>        -0.0844
     22 C15        -4.1252    9.3478    0.3829 C.ar      1 <0>        -0.1587
     23 C16        -4.8818   10.2840   -0.3134 C.ar      1 <0>         0.1131
     24 C17        -5.0849   11.5509    0.2139 C.ar      1 <0>        -0.1870
     25 C18        -4.5378   11.8872    1.4397 C.ar      1 <0>         0.1172
     26 O3         -4.7397   13.1251    1.9592 O.3       1 <0>        -0.2893
     27 O4         -5.4244    9.9564   -1.5145 O.3       1 <0>        -0.2889
     28 H2          2.7743    1.9568   -1.7578 H         1 <0>         0.1097
     29 H3          3.3210    3.6411   -1.5784 H         1 <0>         0.0705
     30 H4          1.7749    3.2886   -2.3868 H         1 <0>         0.0699
     31 H5          2.0248    5.2590   -1.7411 H         1 <0>         0.1391
     32 H6          1.1807    7.4621   -1.1105 H         1 <0>         0.1452
     33 H7          0.4984    3.5860    1.8840 H         1 <0>         0.1472
     34 H8         -1.0676   11.1194    1.5936 H         1 <0>         0.1935
     35 H9         -3.5963   12.1064    4.0243 H         1 <0>         0.1982
     36 H10        -2.9842    8.9421    2.1391 H         1 <0>         0.1587
     37 H11        -3.9717    8.3630   -0.0332 H         1 <0>         0.1544
     38 H12        -5.6736   12.2741   -0.3310 H         1 <0>         0.1569
     39 H13        -4.0312   13.7538    1.7645 H         1 <0>         0.2360
     40 H14        -6.3111    9.5752   -1.4546 H         1 <0>         0.2378
@<TRIPOS>BOND
     1    1    2 1
     2    1   28 1
     3    1   29 1
     4    1   30 1
     5    2    3 1
     6    3    8 ar
     7    3    4 ar
     8    4    5 ar
     9    4   31 1
    10    5    6 ar
    11    5   32 1
    12    6   12 1
    13    6    7 ar
    14    7    8 ar
    15    7    9 1
    16    8   33 1
    17    9   10 1
    18    9   11 1
    19   11   16 1
    20   11   12 2
    21   12   13 1
    22   13   14 2
    23   14   15 1
    24   14   34 1
    25   15   16 am
    26   15   18 1
    27   16   17 2
    28   18   19 2
    29   19   20 1
    30   19   35 1
    31   20   25 ar
    32   20   21 ar
    33   21   22 ar
    34   21   36 1
    35   22   23 ar
    36   22   37 1
    37   23   24 ar
    38   23   27 1
    39   24   25 ar
    40   24   38 1
    41   25   26 1
    42   26   39 1
    43   27   40 1
@<TRIPOS>MOLECULE
ZINC03988254
   46    49     0     0     0
SMALL
USER_CHARGES

@<TRIPOS>ATOM
      1 C1         -2.9478    4.1061   -1.5994 C.3       1 <0>        -0.2378
      2 C2         -2.6628    3.5571   -0.2001 C.3       1 <0>         0.1539
      3 C3         -1.2296    3.0883   -0.0973 C.ar      1 <0>        -0.1764
      4 C4         -0.0231    3.7393   -0.2275 C.ar      1 <0>        -0.0674
      5 C5          1.1601    3.0376   -0.0769 C.ar      1 <0>        -0.1536
      6 C6          1.1264    1.6837    0.2040 C.ar      1 <0>        -0.0862
      7 C7         -0.0803    1.0288    0.3354 C.ar      1 <0>        -0.1530
      8 C8         -1.2768    1.7279    0.1799 C.ar      1 <0>         0.0687
      9 N1         -2.5992    1.2968    0.2694 N.pl3     1 <0>        -0.2338
     10 C9         -3.4797    2.3084    0.0560 C.2       1 <0>         0.1844
     11 C10        -4.8415    2.2170    0.0703 C.2       1 <0>        -0.2507
     12 C11        -5.8204    3.3252   -0.0251 C.ar      1 <0>        -0.0751
     13 C12        -5.6905    4.7038   -0.1497 C.ar      1 <0>         0.0087
     14 C13        -6.8199    5.4945   -0.2159 C.ar      1 <0>        -0.7869
     15 C14        -8.0770    4.9160   -0.1578 C.ar      1 <0>        -0.0089
     16 C15        -8.2163    3.5488   -0.0346 C.ar      1 <0>        -0.1768
     17 C16        -7.0896    2.7359    0.0335 C.ar      1 <0>         0.0981
     18 N2         -6.9479    1.3593    0.1567 N.am      1 <0>        -0.2954
     19 C17        -5.6534    0.9994    0.1769 C.2       1 <0>         0.3680
     20 O1         -5.2281   -0.1385    0.2709 O.2       1 <0>        -0.3716
     21 S1         -6.6622    7.2423   -0.3738 S.o2      1 <0>         2.7682
     22 O2         -7.8638    7.8060    0.1338 O.2       1 <0>        -0.9148
     23 O3         -5.3831    7.5831    0.1429 O.2       1 <0>        -0.9205
     24 N3         -6.6253    7.5863   -1.9933 N.pl3     1 <0>        -0.8449
     25 C18        -7.8727    7.8520   -2.7143 C.3       1 <0>        -0.0435
     26 C19        -5.3454    7.6248   -2.7050 C.3       1 <0>        -0.0526
     27 O4         -2.9377    4.5473    0.7929 O.3       1 <0>        -0.3182
     28 H1         -2.6658    3.3633   -2.3456 H         1 <0>         0.0970
     29 H2         -4.0107    4.3292   -1.6926 H         1 <0>         0.1007
     30 H3         -2.3702    5.0169   -1.7570 H         1 <0>         0.0845
     31 H4         -0.0003    4.7965   -0.4472 H         1 <0>         0.1313
     32 H5          2.1076    3.5458   -0.1789 H         1 <0>         0.1378
     33 H6          2.0500    1.1364    0.3215 H         1 <0>         0.1382
     34 H7         -0.0985   -0.0285    0.5548 H         1 <0>         0.1380
     35 H8         -2.8598    0.3817    0.4583 H         1 <0>         0.2732
     36 H9         -4.7099    5.1541   -0.1942 H         1 <0>         0.1653
     37 H10        -8.9563    5.5408   -0.2098 H         1 <0>         0.1494
     38 H11        -9.2018    3.1091    0.0089 H         1 <0>         0.1358
     39 H12        -7.6893    0.7366    0.2155 H         1 <0>         0.2488
     40 H13        -8.0928    8.9189   -2.6785 H         1 <0>         0.0798
     41 H14        -7.7662    7.5376   -3.7525 H         1 <0>         0.0786
     42 H15        -8.6870    7.2971   -2.2483 H         1 <0>         0.0851
     43 H16        -4.5360    7.4035   -2.0093 H         1 <0>         0.0992
     44 H17        -5.3512    6.8829   -3.5035 H         1 <0>         0.0672
     45 H18        -5.1967    8.6167   -3.1317 H         1 <0>         0.0804
     46 H19        -2.3988    5.3461    0.7115 H         1 <0>         0.2276
@<TRIPOS>BOND
     1    1    2 1
     2    1   28 1
     3    1   29 1
     4    1   30 1
     5    2   10 1
     6    2    3 1
     7    2   27 1
     8    3    8 ar
     9    3    4 ar
    10    4    5 ar
    11    4   31 1
    12    5    6 ar
    13    5   32 1
    14    6    7 ar
    15    6   33 1
    16    7    8 ar
    17    7   34 1
    18    8    9 1
    19    9   10 1
    20    9   35 1
    21   10   11 2
    22   11   19 1
    23   11   12 1
    24   12   17 ar
    25   12   13 ar
    26   13   14 ar
    27   13   36 1
    28   14   15 ar
    29   14   21 1
    30   15   16 ar
    31   15   37 1
    32   16   17 ar
    33   16   38 1
    34   17   18 1
    35   18   19 am
    36   18   39 1
    37   19   20 2
    38   21   22 2
    39   21   23 2
    40   21   24 1
    41   24   25 1
    42   24   26 1
    43   25   40 1
    44   25   41 1
    45   25   42 1
    46   26   43 1
    47   26   44 1
    48   26   45 1
    49   27   46 1
@<TRIPOS>MOLECULE
ZINC03990116
   38    40     0     0     0
SMALL
USER_CHARGES

@<TRIPOS>ATOM
      1 C1          2.3716    1.1262   -0.0145 C.3       1 <0>        -0.0509
      2 O1          1.1433    1.9004    0.0013 O.3       1 <0>        -0.2660
      3 C2         -0.0144    1.2108    0.0087 C.2       1 <0>         0.3477
      4 O2          0.0021   -0.0041    0.0020 O.2       1 <0>        -0.3610
      5 C3         -1.3019    1.9310    0.0187 C.ar      1 <0>        -0.1051
      6 C4         -1.3207    3.3292    0.0323 C.ar      1 <0>        -0.0832
      7 C5         -2.5125    3.9962    0.0366 C.ar      1 <0>        -0.1088
      8 C6         -3.7145    3.2805    0.0384 C.ar      1 <0>        -0.0128
      9 C7         -3.6953    1.8818    0.0303 C.ar      1 <0>        -0.1283
     10 C8         -2.5032    1.2153    0.0205 C.ar      1 <0>        -0.0703
     11 C9         -4.9999    3.9995    0.0484 C.2       1 <0>        -0.1233
     12 N1         -5.0175    5.2981    0.0560 N.2       1 <0>         0.0176
     13 N2         -6.2402    5.9821    0.0655 N.am      1 <0>        -0.3267
     14 C10        -6.2585    7.3297    0.0734 C.2       1 <0>         0.3693
     15 O3         -5.2136    7.9520    0.0722 O.2       1 <0>        -0.3257
     16 C11        -7.5461    8.0499    0.0834 C.ar      1 <0>        -0.1231
     17 C12        -8.7499    7.3313    0.0847 C.ar      1 <0>        -0.1281
     18 C13        -9.9450    7.9840    0.0944 C.ar      1 <0>        -0.0749
     19 C14        -9.9801    9.3838    0.1031 C.ar      1 <0>        -0.0253
     20 C15        -8.7758   10.1117    0.1014 C.ar      1 <0>        -0.0663
     21 C16        -7.5635    9.4438    0.0973 C.ar      1 <0>        -0.0502
     22 N3         -9.1371   11.4455    0.1109 N.pl3     1 <0>        -0.2187
     23 H1         -8.5149   12.2284    0.1124 H         1 <0>         0.2590
     24 C17       -10.4948   11.4954    0.1179 C.2       1 <0>        -0.0146
     25 N4        -10.9880   10.2902    0.1134 N.2       1 <0>        -0.1784
     26 H2          2.4135    0.4930    0.8717 H         1 <0>         0.0830
     27 H3          2.3965    0.5026   -0.9082 H         1 <0>         0.0830
     28 H4          3.2269    1.8019   -0.0191 H         1 <0>         0.1037
     29 H5         -0.3927    3.8817    0.0354 H         1 <0>         0.1532
     30 H6         -2.5270    5.0761    0.0429 H         1 <0>         0.1649
     31 H7         -4.6231    1.3290    0.0320 H         1 <0>         0.1366
     32 H8         -2.4884    0.1354    0.0139 H         1 <0>         0.1573
     33 H9         -5.9278    3.4469    0.0495 H         1 <0>         0.1188
     34 H10        -7.0736    5.4857    0.0664 H         1 <0>         0.2125
     35 H11        -8.7292    6.2515    0.0784 H         1 <0>         0.1254
     36 H12       -10.8668    7.4214    0.0957 H         1 <0>         0.1470
     37 H13        -6.6371    9.9990    0.1011 H         1 <0>         0.1563
     38 H14       -11.0801   12.4030    0.1266 H         1 <0>         0.2063
@<TRIPOS>BOND
     1    1    2 1
     2    1   26 1
     3    1   27 1
     4    1   28 1
     5    2    3 1
     6    3    4 2
     7    3    5 1
     8    5   10 ar
     9    5    6 ar
    10    6    7 ar
    11    6   29 1
    12    7    8 ar
    13    7   30 1
    14    8    9 ar
    15    8   11 1
    16    9   10 ar
    17    9   31 1
    18   10   32 1
    19   11   12 2
    20   11   33 1
    21   12   13 1
    22   13   14 am
    23   13   34 1
    24   14   15 2
    25   14   16 1
    26   16   21 ar
    27   16   17 ar
    28   17   18 ar
    29   17   35 1
    30   18   19 ar
    31   18   36 1
    32   19   25 1
    33   19   20 ar
    34   20   21 ar
    35   20   22 1
    36   21   37 1
    37   22   23 1
    38   22   24 1
    39   24   25 2
    40   24   38 1
@<TRIPOS>MOLECULE
ZINC03990116
   39    41     0     0     0
SMALL
USER_CHARGES

@<TRIPOS>ATOM
      1 C1          2.3716    1.1262   -0.0145 C.3       1 <0>        -0.0514
      2 O1          1.1433    1.9004    0.0013 O.3       1 <0>        -0.2661
      3 C2         -0.0144    1.2108    0.0087 C.2       1 <0>         0.3436
      4 O2          0.0021   -0.0041    0.0020 O.2       1 <0>        -0.3493
      5 C3         -1.3019    1.9310    0.0187 C.ar      1 <0>        -0.0848
      6 C4         -1.3207    3.3292    0.0323 C.ar      1 <0>        -0.0849
      7 C5         -2.5125    3.9962    0.0366 C.ar      1 <0>        -0.1003
      8 C6         -3.7145    3.2805    0.0384 C.ar      1 <0>        -0.0412
      9 C7         -3.6953    1.8818    0.0303 C.ar      1 <0>        -0.1162
     10 C8         -2.5032    1.2153    0.0205 C.ar      1 <0>        -0.0708
     11 C9         -4.9999    3.9995    0.0484 C.2       1 <0>        -0.0780
     12 N1         -5.0175    5.2981    0.0560 N.2       1 <0>        -0.0011
     13 N2         -6.2402    5.9821    0.0655 N.am      1 <0>        -0.3196
     14 C10        -6.2585    7.3297    0.0734 C.2       1 <0>         0.3547
     15 O3         -5.2136    7.9520    0.0722 O.2       1 <0>        -0.2915
     16 C11        -7.5461    8.0499    0.0834 C.ar      1 <0>        -0.0630
     17 C12        -8.7499    7.3313    0.0847 C.ar      1 <0>        -0.0709
     18 C13        -9.9450    7.9840    0.0944 C.ar      1 <0>        -0.0920
     19 C14        -9.9801    9.3838    0.1031 C.ar      1 <0>        -0.0421
     20 C15        -8.7758   10.1117    0.1014 C.ar      1 <0>        -0.0220
     21 C16        -7.5635    9.4438    0.0973 C.ar      1 <0>        -0.0418
     22 N3         -9.1371   11.4455    0.1109 N.pl3     1 <0>        -0.1381
     23 H1         -8.5149   12.2284    0.1124 H         1 <0>         0.3169
     24 C17       -10.4948   11.4954    0.1179 C.cat     1 <0>         0.0901
     25 H2          2.4135    0.4930    0.8717 H         1 <0>         0.0865
     26 H3          2.3965    0.5026   -0.9082 H         1 <0>         0.0865
     27 H4          3.2269    1.8019   -0.0191 H         1 <0>         0.1083
     28 H5         -0.3927    3.8817    0.0354 H         1 <0>         0.1594
     29 H6         -2.5270    5.0761    0.0429 H         1 <0>         0.1605
     30 H7         -4.6231    1.3290    0.0320 H         1 <0>         0.1376
     31 H8         -2.4884    0.1354    0.0139 H         1 <0>         0.1653
     32 H9         -5.9278    3.4469    0.0495 H         1 <0>         0.1199
     33 H10        -7.0736    5.4857    0.0664 H         1 <0>         0.2040
     34 H11        -8.7292    6.2515    0.0784 H         1 <0>         0.1648
     35 H12       -10.8668    7.4214    0.0957 H         1 <0>         0.1657
     36 H13        -6.6371    9.9990    0.1011 H         1 <0>         0.1929
     37 H14       -11.0801   12.4030    0.1266 H         1 <0>         0.2507
     38 N4        -10.9895   10.2899    0.1134 N.pl3     1 <0>        -0.1027
     39 H15       -11.9904   10.0608    0.1171 H         1 <0>         0.3204
@<TRIPOS>BOND
     1    1    2 1
     2    1   25 1
     3    1   26 1
     4    1   27 1
     5    2    3 1
     6    3    4 2
     7    3    5 1
     8    5   10 ar
     9    5    6 ar
    10    6    7 ar
    11    6   28 1
    12    7    8 ar
    13    7   29 1
    14    8    9 ar
    15    8   11 1
    16    9   10 ar
    17    9   30 1
    18   10   31 1
    19   11   12 2
    20   11   32 1
    21   12   13 1
    22   13   14 am
    23   13   33 1
    24   14   15 2
    25   14   16 1
    26   16   21 ar
    27   16   17 ar
    28   17   18 ar
    29   17   34 1
    30   18   19 ar
    31   18   35 1
    32   19   20 ar
    33   19   38 1
    34   20   21 ar
    35   20   22 1
    36   21   36 1
    37   22   23 1
    38   22   24 1
    39   24   37 1
    40   24   38 2
    41   38   39 1
@<TRIPOS>MOLECULE
ZINC03990116
   38    40     0     0     0
SMALL
USER_CHARGES

@<TRIPOS>ATOM
      1 C1          2.3716    1.1262   -0.0145 C.3       1 <0>        -0.0508
      2 O1          1.1433    1.9004    0.0013 O.3       1 <0>        -0.2656
      3 C2         -0.0144    1.2108    0.0087 C.2       1 <0>         0.3479
      4 O2          0.0021   -0.0041    0.0020 O.2       1 <0>        -0.3616
      5 C3         -1.3019    1.9310    0.0187 C.ar      1 <0>        -0.1056
      6 C4         -1.3207    3.3292    0.0323 C.ar      1 <0>        -0.0827
      7 C5         -2.5125    3.9962    0.0366 C.ar      1 <0>        -0.1086
      8 C6         -3.7145    3.2805    0.0384 C.ar      1 <0>        -0.0122
      9 C7         -3.6953    1.8818    0.0303 C.ar      1 <0>        -0.1293
     10 C8         -2.5032    1.2153    0.0205 C.ar      1 <0>        -0.0705
     11 C9         -4.9999    3.9995    0.0484 C.2       1 <0>        -0.1257
     12 N1         -5.0175    5.2981    0.0560 N.2       1 <0>         0.0202
     13 N2         -6.2402    5.9821    0.0655 N.am      1 <0>        -0.3287
     14 C10        -6.2585    7.3297    0.0734 C.2       1 <0>         0.3692
     15 O3         -5.2136    7.9520    0.0722 O.2       1 <0>        -0.3194
     16 C11        -7.5461    8.0499    0.0834 C.ar      1 <0>        -0.1485
     17 C12        -8.7499    7.3313    0.0847 C.ar      1 <0>        -0.1032
     18 C13        -9.9450    7.9840    0.0944 C.ar      1 <0>        -0.1257
     19 C14        -9.9801    9.3838    0.1031 C.ar      1 <0>        -0.0610
     20 C15        -8.7758   10.1117    0.1014 C.ar      1 <0>        -0.0578
     21 C16        -7.5635    9.4438    0.0973 C.ar      1 <0>         0.0051
     22 N3         -9.1371   11.4455    0.1109 N.2       1 <0>        -0.1627
     23 H1        -11.9628   10.0671    0.1170 H         1 <0>         0.2524
     24 C17       -10.4948   11.4954    0.1179 C.2       1 <0>        -0.0526
     25 N4        -10.9880   10.2902    0.1134 N.pl3     1 <0>        -0.1637
     26 H2          2.4135    0.4930    0.8717 H         1 <0>         0.0828
     27 H3          2.3965    0.5026   -0.9082 H         1 <0>         0.0828
     28 H4          3.2269    1.8019   -0.0191 H         1 <0>         0.1039
     29 H5         -0.3927    3.8817    0.0354 H         1 <0>         0.1536
     30 H6         -2.5270    5.0761    0.0429 H         1 <0>         0.1658
     31 H7         -4.6231    1.3290    0.0320 H         1 <0>         0.1359
     32 H8         -2.4884    0.1354    0.0139 H         1 <0>         0.1569
     33 H9         -5.9278    3.4469    0.0495 H         1 <0>         0.1174
     34 H10        -7.0736    5.4857    0.0664 H         1 <0>         0.2099
     35 H11        -8.7292    6.2515    0.0784 H         1 <0>         0.1248
     36 H12       -10.8668    7.4214    0.0957 H         1 <0>         0.1288
     37 H13        -6.6371    9.9990    0.1011 H         1 <0>         0.1733
     38 H14       -11.0801   12.4030    0.1260 H         1 <0>         0.2054
@<TRIPOS>BOND
     1    1    2 1
     2    1   26 1
     3    1   27 1
     4    1   28 1
     5    2    3 1
     6    3    4 2
     7    3    5 1
     8    5   10 ar
     9    5    6 ar
    10    6    7 ar
    11    6   29 1
    12    7    8 ar
    13    7   30 1
    14    8    9 ar
    15    8   11 1
    16    9   10 ar
    17    9   31 1
    18   10   32 1
    19   11   12 2
    20   11   33 1
    21   12   13 1
    22   13   14 am
    23   13   34 1
    24   14   15 2
    25   14   16 1
    26   16   21 ar
    27   16   17 ar
    28   17   18 ar
    29   17   35 1
    30   18   19 ar
    31   18   36 1
    32   19   25 1
    33   19   20 ar
    34   20   21 ar
    35   20   22 1
    36   21   37 1
    37   22   24 2
    38   23   25 1
    39   24   38 1
    40   24   25 1
@<TRIPOS>MOLECULE
ZINC03991076
   45    47     0     0     0
SMALL
USER_CHARGES

@<TRIPOS>ATOM
      1 C1         -1.2929   -0.6252   -0.0374 C.3       1 <0>        -0.2093
      2 C2          0.0461    0.0661   -0.0289 C.2       1 <0>         0.2223
      3 C3          0.1132    1.4671    0.0648 C.2       1 <0>        -0.4166
      4 C4         -1.0676    2.2089    0.2780 C.2       1 <0>         0.2887
      5 O1         -2.1325    1.6330    0.3758 O.2       1 <0>        -0.3511
      6 C5         -1.0155    3.7103    0.3905 C.3       1 <0>        -0.1878
      7 C6          0.1456    4.2402   -0.4547 C.3       1 <0>        -0.0606
      8 C7          1.4530    3.6156    0.0391 C.3       1 <0>        -0.1897
      9 C8          1.3597    2.1154   -0.0612 C.2       1 <0>         0.2848
     10 O2          2.3642    1.4598   -0.2521 O.2       1 <0>        -0.3187
     11 C9          0.2231    5.7622   -0.3197 C.3       1 <0>        -0.2022
     12 C10        -0.0768    3.8677   -1.9219 C.3       1 <0>        -0.2070
     13 N1          1.1565   -0.6441   -0.1096 N.2       1 <0>        -0.3493
     14 C11         1.8025   -1.0055    1.0059 C.2       1 <0>         0.3194
     15 N2          1.3441   -0.5899    2.2279 N.pl3     1 <0>        -0.4049
     16 N3          2.8932   -1.7707    0.9272 N.2       1 <0>        -0.3120
     17 C12         3.3371   -2.1732   -0.2561 C.2       1 <0>         0.3206
     18 N4          4.4319   -2.9513   -0.4626 N.pl3     1 <0>        -0.2505
     19 H1          5.0209   -3.3076    0.2208 H         1 <0>         0.2816
     20 C13         4.5516   -3.1432   -1.8369 C.ar      1 <0>        -0.0315
     21 C14         5.4583   -3.8364   -2.6248 C.ar      1 <0>        -0.1167
     22 C15         5.3112   -3.8425   -3.9978 C.ar      1 <0>        -0.1142
     23 C16         4.2620   -3.1591   -4.5886 C.ar      1 <0>        -0.1199
     24 C17         3.3552   -2.4666   -3.8112 C.ar      1 <0>        -0.0865
     25 C18         3.4939   -2.4542   -2.4312 C.ar      1 <0>         0.0090
     26 O3          2.7729   -1.8810   -1.4376 O.3       1 <0>        -0.0456
     27 H2         -1.8452   -0.3366   -0.9317 H         1 <0>         0.1170
     28 H3         -1.1442   -1.7051   -0.0348 H         1 <0>         0.0770
     29 H4         -1.8577   -0.3341    0.8483 H         1 <0>         0.1240
     30 H5         -0.8802    3.9684    1.3471 H         1 <0>         0.0975
     31 H6         -1.9523    4.1327    0.0268 H         1 <0>         0.1086
     32 H7          1.6088    3.8778    0.9915 H         1 <0>         0.0964
     33 H8          2.2805    3.9704   -0.5754 H         1 <0>         0.1077
     34 H9          1.0534    6.1382   -0.9176 H         1 <0>         0.0767
     35 H10        -0.7082    6.2061   -0.6715 H         1 <0>         0.0762
     36 H11         0.3795    6.0268    0.7261 H         1 <0>         0.0721
     37 H12        -0.1340    2.7834   -2.0168 H         1 <0>         0.0910
     38 H13        -1.0079    4.3128   -2.2726 H         1 <0>         0.0740
     39 H14         0.7531    4.2417   -2.5215 H         1 <0>         0.0753
     40 H15         0.5047   -0.1081    2.2928 H         1 <0>         0.2400
     41 H16         1.8588   -0.7775    3.0284 H         1 <0>         0.2312
     42 H17         6.2775   -4.3698   -2.1657 H         1 <0>         0.1391
     43 H18         6.0167   -4.3817   -4.6125 H         1 <0>         0.1429
     44 H19         4.1523   -3.1680   -5.6630 H         1 <0>         0.1456
     45 H20         2.5386   -1.9351   -4.2771 H         1 <0>         0.1559
@<TRIPOS>BOND
     1    1    2 1
     2    1   27 1
     3    1   28 1
     4    1   29 1
     5    2    3 2
     6    2   13 1
     7    3    9 1
     8    3    4 1
     9    4    5 2
    10    4    6 1
    11    6    7 1
    12    6   30 1
    13    6   31 1
    14    7    8 1
    15    7   11 1
    16    7   12 1
    17    8    9 1
    18    8   32 1
    19    8   33 1
    20    9   10 2
    21   11   34 1
    22   11   35 1
    23   11   36 1
    24   12   37 1
    25   12   38 1
    26   12   39 1
    27   13   14 2
    28   14   15 1
    29   14   16 1
    30   15   40 1
    31   15   41 1
    32   16   17 2
    33   17   26 1
    34   17   18 1
    35   18   19 1
    36   18   20 1
    37   20   25 ar
    38   20   21 ar
    39   21   22 ar
    40   21   42 1
    41   22   23 ar
    42   22   43 1
    43   23   24 ar
    44   23   44 1
    45   24   25 ar
    46   24   45 1
    47   25   26 1
@<TRIPOS>MOLECULE
ZINC03991916
   41    42     0     0     0
SMALL
USER_CHARGES

@<TRIPOS>ATOM
      1 C1         -3.0851   -1.9913   -2.4416 C.3       1 <0>        -0.2359
      2 C2         -3.8202   -0.7377   -2.0427 C.2       1 <0>         0.3018
      3 O1         -4.9368   -0.5283   -2.4674 O.2       1 <0>        -0.3477
      4 N1         -3.2369    0.1508   -1.2140 N.am      1 <0>        -0.3328
      5 C3         -3.8806    1.3570   -0.9163 C.ar      1 <0>         0.1156
      6 C4         -3.1369    2.5145   -0.7276 C.ar      1 <0>        -0.1890
      7 C5         -3.7758    3.7049   -0.4404 C.ar      1 <0>         0.0021
      8 C6         -5.1535    3.7422   -0.3281 C.ar      1 <0>        -0.7766
      9 C7         -5.8965    2.5901   -0.5094 C.ar      1 <0>        -0.0160
     10 C8         -5.2641    1.3980   -0.8033 C.ar      1 <0>        -0.1537
     11 S1         -5.9642    5.2613    0.0462 S.o2      1 <0>         2.7762
     12 O2         -5.0898    6.3014   -0.3695 O.2       1 <0>        -0.8942
     13 O3         -7.2936    5.1431   -0.4417 O.2       1 <0>        -0.9136
     14 N2         -6.0727    5.3650    1.6954 N.pl3     1 <0>        -0.8178
     15 N3         -4.9090    5.3618    2.4755 N.2       1 <0>        -0.0090
     16 C9         -4.9943    5.2791    3.7675 C.2       1 <0>        -0.0864
     17 C10        -6.2279    4.7681    4.3938 C.ar      1 <0>        -0.1418
     18 C11        -6.4995    5.0464    5.7357 C.ar      1 <0>        -0.0622
     19 C12        -7.6558    4.5704    6.3156 C.ar      1 <0>        -0.2221
     20 C13        -8.5450    3.8067    5.5711 C.ar      1 <0>         0.1124
     21 C14        -8.2768    3.5235    4.2383 C.ar      1 <0>        -0.1557
     22 C15        -7.1254    3.9994    3.6487 C.ar      1 <0>        -0.0943
     23 O4         -9.6809    3.3347    6.1485 O.3       1 <0>        -0.2070
     24 C16        -9.8949    3.6632    7.5227 C.3       1 <0>        -0.0645
     25 H1         -2.1048   -2.0048   -1.9652 H         1 <0>         0.0789
     26 H2         -3.6557   -2.8639   -2.1236 H         1 <0>         0.1150
     27 H3         -2.9631   -2.0119   -3.5245 H         1 <0>         0.1181
     28 H4         -2.3726   -0.0476   -0.8209 H         1 <0>         0.2354
     29 H5         -2.0605    2.4850   -0.8101 H         1 <0>         0.1356
     30 H6         -3.1984    4.6066   -0.2990 H         1 <0>         0.1584
     31 H7         -6.9724    2.6226   -0.4214 H         1 <0>         0.1507
     32 H8         -5.8450    0.4987   -0.9455 H         1 <0>         0.1701
     33 H9         -6.9419    5.4279    2.1212 H         1 <0>         0.2416
     34 H10        -4.1621    5.5846    4.3843 H         1 <0>         0.1800
     35 H11        -5.8064    5.6368    6.3166 H         1 <0>         0.1354
     36 H12        -7.8686    4.7885    7.3518 H         1 <0>         0.1398
     37 H13        -8.9713    2.9292    3.6630 H         1 <0>         0.1515
     38 H14        -6.9173    3.7781    2.6123 H         1 <0>         0.1495
     39 H15        -9.0752    3.2679    8.1227 H         1 <0>         0.0696
     40 H16        -9.9376    4.7466    7.6349 H         1 <0>         0.0704
     41 H17       -10.8350    3.2258    7.8587 H         1 <0>         0.1124
@<TRIPOS>BOND
     1    1    2 1
     2    1   25 1
     3    1   26 1
     4    1   27 1
     5    2    3 2
     6    2    4 am
     7    4    5 1
     8    4   28 1
     9    5   10 ar
    10    5    6 ar
    11    6    7 ar
    12    6   29 1
    13    7    8 ar
    14    7   30 1
    15    8    9 ar
    16    8   11 1
    17    9   10 ar
    18    9   31 1
    19   10   32 1
    20   11   12 2
    21   11   13 2
    22   11   14 1
    23   14   15 1
    24   14   33 1
    25   15   16 2
    26   16   17 1
    27   16   34 1
    28   17   22 ar
    29   17   18 ar
    30   18   19 ar
    31   18   35 1
    32   19   20 ar
    33   19   36 1
    34   20   21 ar
    35   20   23 1
    36   21   22 ar
    37   21   37 1
    38   22   38 1
    39   23   24 1
    40   24   39 1
    41   24   40 1
    42   24   41 1
@<TRIPOS>MOLECULE
ZINC03991922
   40    41     0     0     0
SMALL
USER_CHARGES

@<TRIPOS>ATOM
      1 C1         -0.0307    0.0111    3.5915 C.3       1 <0>        -0.0812
      2 N1         -0.6923    1.1368    2.9272 N.am      1 <0>        -0.2709
      3 C2         -2.0583    1.2418    2.9681 C.2       1 <0>         0.2937
      4 C3         -2.6748    2.3196    2.3313 C.2       1 <0>        -0.4517
      5 C4         -1.8589    3.2720    1.6675 C.2       1 <0>         0.3681
      6 O1         -2.3624    4.2278    1.1048 O.2       1 <0>        -0.3549
      7 N2         -0.5216    3.1054    1.6614 N.am      1 <0>        -0.3036
      8 C5          0.0459    2.0578    2.2834 C.2       1 <0>         0.4066
      9 O2          1.2558    1.9399    2.2630 O.2       1 <0>        -0.3533
     10 C6          0.3253    4.0826    0.9727 C.3       1 <0>        -0.0600
     11 C7         -4.1370    2.4680    2.3523 C.2       1 <0>        -0.0206
     12 N3         -4.8197    2.3327    1.2545 N.2       1 <0>         0.0116
     13 N4         -4.1885    1.8813    0.0881 N.am      1 <0>        -0.2974
     14 C8         -4.8656    1.8532   -1.0769 C.2       1 <0>         0.2967
     15 O3         -6.0221    2.2188   -1.1154 O.2       1 <0>        -0.3097
     16 C9         -4.1866    1.3677   -2.3315 C.3       1 <0>        -0.1068
     17 N5         -5.1272    1.4340   -3.4528 N.ar      1 <0>         0.0255
     18 C10        -5.8829    0.3867   -3.7197 C.ar      1 <0>        -0.0038
     19 C11        -6.7849    0.4142   -4.7664 C.ar      1 <0>        -0.1287
     20 C12        -6.8811    1.5571   -5.5455 C.ar      1 <0>        -0.0110
     21 C13        -6.0667    2.6362   -5.2376 C.ar      1 <0>        -0.1278
     22 C14        -5.1922    2.5374   -4.1720 C.ar      1 <0>         0.0013
     23 N6         -2.8062    0.3041    3.6239 N.pl3     1 <0>        -0.3753
     24 H1          1.0478    0.0919    3.4555 H         1 <0>         0.1516
     25 H2         -0.2650    0.0286    4.6559 H         1 <0>         0.0952
     26 H3         -0.3825   -0.9247    3.1573 H         1 <0>         0.0844
     27 H4          0.4671    3.7744   -0.0631 H         1 <0>         0.0802
     28 H5          1.2932    4.1393    1.4707 H         1 <0>         0.1190
     29 H6         -0.1544    5.0610    0.9983 H         1 <0>         0.1197
     30 H7         -4.6441    2.6893    3.2798 H         1 <0>         0.1923
     31 H8         -3.2641    1.5891    0.1189 H         1 <0>         0.2192
     32 H9         -3.3228    1.9975   -2.5442 H         1 <0>         0.1566
     33 H10        -3.8595    0.3373   -2.1922 H         1 <0>         0.1484
     34 H11        -5.7985   -0.5014   -3.1110 H         1 <0>         0.2029
     35 H12        -7.4037   -0.4453   -4.9777 H         1 <0>         0.1952
     36 H13        -7.5738    1.6056   -6.3727 H         1 <0>         0.1886
     37 H14        -6.1153    3.5425   -5.8229 H         1 <0>         0.1969
     38 H15        -4.5544    3.3734   -3.9256 H         1 <0>         0.2083
     39 H16        -2.3706   -0.4422    4.0645 H         1 <0>         0.2389
     40 H17        -3.7725    0.3850    3.6486 H         1 <0>         0.2559
@<TRIPOS>BOND
     1    1    2 1
     2    1   24 1
     3    1   25 1
     4    1   26 1
     5    2    8 am
     6    2    3 1
     7    3    4 2
     8    3   23 1
     9    4    5 1
    10    4   11 1
    11    5    6 2
    12    5    7 am
    13    7    8 am
    14    7   10 1
    15    8    9 2
    16   10   27 1
    17   10   28 1
    18   10   29 1
    19   11   12 2
    20   11   30 1
    21   12   13 1
    22   13   14 am
    23   13   31 1
    24   14   15 2
    25   14   16 1
    26   16   17 1
    27   16   32 1
    28   16   33 1
    29   17   22 ar
    30   17   18 ar
    31   18   19 ar
    32   18   34 1
    33   19   20 ar
    34   19   35 1
    35   20   21 ar
    36   20   36 1
    37   21   22 ar
    38   21   37 1
    39   22   38 1
    40   23   39 1
    41   23   40 1
@<TRIPOS>MOLECULE
ZINC03991981
   41    43     0     0     0
SMALL
USER_CHARGES

@<TRIPOS>ATOM
      1 C1          4.9579   -4.5048    4.8625 C.3       1 <0>        -0.2102
      2 C2          5.5377   -3.1077    5.0926 C.3       1 <0>        -0.0784
      3 C3          4.9424   -2.1465    4.0963 C.2       1 <0>        -0.2747
      4 C4          3.8316   -1.4023    4.2191 C.2       1 <0>        -0.1062
      5 C5          3.4355   -0.5354    3.1252 C.2       1 <0>        -0.2325
      6 C6          4.2865   -0.5635    2.0057 C.2       1 <0>        -0.1273
      7 S1          5.5438   -1.7256    2.4715 S.3       1 <0>         0.4068
      8 N1          4.0532    0.1768    0.9259 N.2       1 <0>        -0.1816
      9 C7          3.0145    0.9662    0.8630 C.2       1 <0>         0.0962
     10 N2          2.1385    1.0586    1.8963 N.am      1 <0>        -0.2386
     11 C8          2.3094    0.3454    3.0249 C.2       1 <0>         0.3608
     12 O1          1.5166    0.4439    3.9456 O.2       1 <0>        -0.3614
     13 C9          0.9871    1.9573    1.7828 C.3       1 <0>        -0.0536
     14 C10        -0.1771    1.2093    1.1860 C.2       1 <0>         0.2935
     15 O2         -0.0569    0.0403    0.8851 O.2       1 <0>        -0.2974
     16 N3         -1.3502    1.8407    0.9815 N.am      1 <0>        -0.3456
     17 N4         -2.4307    1.1468    0.4214 N.2       1 <0>         0.0227
     18 C11        -3.5247    1.7794    0.1249 C.2       1 <0>        -0.1065
     19 C12        -3.5494    3.2529    0.1340 C.ar      1 <0>        -0.1260
     20 C13        -2.3733    3.9764   -0.0771 C.ar      1 <0>        -0.1353
     21 C14        -2.4041    5.3550   -0.0716 C.ar      1 <0>        -0.1354
     22 C15        -3.5945    6.0258    0.1519 C.ar      1 <0>        -0.1020
     23 C16        -4.7640    5.3215    0.3673 C.ar      1 <0>        -0.1451
     24 C17        -4.7519    3.9362    0.3603 C.ar      1 <0>         0.0973
     25 O3         -5.9007    3.2432    0.5714 O.3       1 <0>        -0.2879
     26 H1          5.3884   -5.2001    5.5831 H         1 <0>         0.0767
     27 H2          3.8757   -4.4744    4.9888 H         1 <0>         0.0840
     28 H3          5.1965   -4.8352    3.8515 H         1 <0>         0.0812
     29 H4          6.6199   -3.1381    4.9663 H         1 <0>         0.0924
     30 H5          5.2990   -2.7773    6.1035 H         1 <0>         0.0994
     31 H6          3.2403   -1.4481    5.1217 H         1 <0>         0.1600
     32 H7          2.8497    1.5560   -0.0266 H         1 <0>         0.1926
     33 H8          1.2455    2.7995    1.1408 H         1 <0>         0.1069
     34 H9          0.7142    2.3249    2.7720 H         1 <0>         0.1490
     35 H10        -1.4463    2.7754    1.2221 H         1 <0>         0.2254
     36 H11        -4.4168    1.2259   -0.1285 H         1 <0>         0.1980
     37 H12        -1.4420    3.4569   -0.2477 H         1 <0>         0.1457
     38 H13        -1.4952    5.9139   -0.2386 H         1 <0>         0.1353
     39 H14        -3.6092    7.1057    0.1583 H         1 <0>         0.1386
     40 H15        -5.6885    5.8518    0.5416 H         1 <0>         0.1477
     41 H16        -6.0341    2.9735    1.4904 H         1 <0>         0.2358
@<TRIPOS>BOND
     1    1    2 1
     2    1   26 1
     3    1   27 1
     4    1   28 1
     5    2    3 1
     6    2   29 1
     7    2   30 1
     8    3    7 1
     9    3    4 2
    10    4    5 1
    11    4   31 1
    12    5   11 1
    13    5    6 2
    14    6    7 1
    15    6    8 1
    16    8    9 2
    17    9   10 1
    18    9   32 1
    19   10   11 am
    20   10   13 1
    21   11   12 2
    22   13   14 1
    23   13   33 1
    24   13   34 1
    25   14   15 2
    26   14   16 am
    27   16   17 1
    28   16   35 1
    29   17   18 2
    30   18   19 1
    31   18   36 1
    32   19   24 ar
    33   19   20 ar
    34   20   21 ar
    35   20   37 1
    36   21   22 ar
    37   21   38 1
    38   22   23 ar
    39   22   39 1
    40   23   24 ar
    41   23   40 1
    42   24   25 1
    43   25   41 1
@<TRIPOS>MOLECULE
ZINC03992897
   38    41     0     0     0
SMALL
USER_CHARGES

@<TRIPOS>ATOM
      1 C1         -4.6954    3.5380   -0.0934 C.3       1 <0>        -0.0579
      2 N1         -3.2340    3.4621   -0.0252 N.am      1 <0>        -0.2703
      3 C2         -2.3969    4.5646    0.0979 C.ar      1 <0>         0.0826
      4 C3         -2.6664    5.9255    0.1849 C.ar      1 <0>        -0.1628
      5 C4         -1.6309    6.8310    0.3030 C.ar      1 <0>        -0.0771
      6 C5         -0.3150    6.3990    0.3368 C.ar      1 <0>        -0.1658
      7 C6         -0.0262    5.0525    0.2524 C.ar      1 <0>        -0.0558
      8 C7         -1.0636    4.1298    0.1385 C.ar      1 <0>        -0.1235
      9 C8         -1.1007    2.6582    0.0220 C.2       1 <0>        -0.0234
     10 C9         -0.0222    1.7846    0.0119 C.2       1 <0>        -0.1869
     11 C10         1.4265    2.0685   -0.1101 C.2       1 <0>         0.2205
     12 N2          2.2242    1.0566   -0.0956 N.2       1 <0>        -0.2878
     13 C11         1.7778   -0.2103    0.0243 C.2       1 <0>         0.0090
     14 N3          2.4758   -1.3281    0.0535 N.2       1 <0>        -0.0922
     15 C12         1.8389   -2.5258    0.1825 C.ar      1 <0>         0.0025
     16 C13         0.8199   -2.6819    1.1297 C.ar      1 <0>        -0.1636
     17 C14         0.1750   -3.8942    1.2526 C.ar      1 <0>        -0.0995
     18 C15         0.5384   -4.9613    0.4502 C.ar      1 <0>        -0.1529
     19 C16         1.5520   -4.8189   -0.4889 C.ar      1 <0>         0.0773
     20 C17         2.2042   -3.6063   -0.6267 C.ar      1 <0>        -0.1278
     21 O1          1.9033   -5.8716   -1.2734 O.3       1 <0>        -0.2892
     22 S1          0.0068    0.0002    0.1344 S.3       1 <0>         0.1996
     23 O2          1.8911    3.3328   -0.2316 O.3       1 <0>        -0.2247
     24 C18        -2.5314    2.3175   -0.0746 C.2       1 <0>         0.3458
     25 O3         -2.9949    1.1970   -0.1801 O.2       1 <0>        -0.3049
     26 H1         -5.1074    2.5333   -0.1883 H         1 <0>         0.1166
     27 H2         -5.0779    4.0032    0.8151 H         1 <0>         0.0826
     28 H3         -4.9884    4.1339   -0.9578 H         1 <0>         0.0829
     29 H4         -3.6878    6.2753    0.1597 H         1 <0>         0.1359
     30 H5         -1.8489    7.8866    0.3700 H         1 <0>         0.1362
     31 H6          0.4860    7.1174    0.4299 H         1 <0>         0.1367
     32 H7          0.9994    4.7151    0.2787 H         1 <0>         0.1649
     33 H8          0.5364   -1.8524    1.7606 H         1 <0>         0.1487
     34 H9         -0.6140   -4.0126    1.9805 H         1 <0>         0.1382
     35 H10         0.0318   -5.9093    0.5547 H         1 <0>         0.1414
     36 H11         2.9922   -3.4946   -1.3568 H         1 <0>         0.1560
     37 H12         2.5995   -6.4274   -0.8973 H         1 <0>         0.2291
     38 H13         2.8535    3.3930   -0.3036 H         1 <0>         0.2597
@<TRIPOS>BOND
     1    1    2 1
     2    1   26 1
     3    1   27 1
     4    1   28 1
     5    2   24 am
     6    2    3 1
     7    3    8 ar
     8    3    4 ar
     9    4    5 ar
    10    4   29 1
    11    5    6 ar
    12    5   30 1
    13    6    7 ar
    14    6   31 1
    15    7    8 ar
    16    7   32 1
    17    8    9 1
    18    9   10 2
    19    9   24 1
    20   10   22 1
    21   10   11 1
    22   11   12 2
    23   11   23 1
    24   12   13 1
    25   13   14 2
    26   13   22 1
    27   14   15 1
    28   15   20 ar
    29   15   16 ar
    30   16   17 ar
    31   16   33 1
    32   17   18 ar
    33   17   34 1
    34   18   19 ar
    35   18   35 1
    36   19   20 ar
    37   19   21 1
    38   20   36 1
    39   21   37 1
    40   23   38 1
    41   24   25 2
@<TRIPOS>MOLECULE
ZINC03993158
   43    45     0     0     0
SMALL
USER_CHARGES

@<TRIPOS>ATOM
      1 C1          9.4492   -5.0007   -0.0296 C.ar      1 <0>        -0.1327
      2 C2         10.4991   -5.8728   -0.2626 C.ar      1 <0>        -0.1018
      3 C3         10.2568   -7.2157   -0.4816 C.ar      1 <0>        -0.1463
      4 C4          8.9584   -7.6984   -0.4692 C.ar      1 <0>         0.0956
      5 C5          7.8925   -6.8194   -0.2338 C.ar      1 <0>        -0.1294
      6 C6          8.1503   -5.4635   -0.0191 C.ar      1 <0>        -0.1332
      7 C7          6.5071   -7.3218   -0.2189 C.2       1 <0>        -0.1039
      8 N1          5.5244   -6.5242   -0.5069 N.2       1 <0>         0.0161
      9 N2          5.7842   -5.2651   -1.0637 N.am      1 <0>        -0.3440
     10 C8          4.7750   -4.3935   -1.2593 C.2       1 <0>         0.3033
     11 O1          3.6416   -4.6992   -0.9532 O.2       1 <0>        -0.3278
     12 C9          5.0545   -3.0392   -1.8582 C.3       1 <0>        -0.0251
     13 N3          3.8029   -2.2856   -1.9668 N.am      1 <0>        -0.3790
     14 C10         3.8093   -1.0386   -2.4782 C.2       1 <0>         0.3557
     15 O2          4.8538   -0.5391   -2.8494 O.2       1 <0>        -0.3769
     16 C11         2.5482   -0.2793   -2.5876 C.ar      1 <0>        -0.1336
     17 C12         1.3469   -0.8512   -2.1618 C.ar      1 <0>        -0.1017
     18 C13         0.1717   -0.1406   -2.2659 C.ar      1 <0>        -0.1338
     19 C14         0.1749    1.1452   -2.7940 C.ar      1 <0>         0.0428
     20 C15         1.3694    1.7221   -3.2178 C.ar      1 <0>         0.0042
     21 C16         2.5526    1.0133   -3.1168 C.ar      1 <0>        -0.0607
     22 O3          1.3905    2.9836   -3.7293 O.3       1 <0>        -0.2011
     23 C17         0.1369    3.5238   -4.1612 C.3       1 <0>        -0.0521
     24 C18        -0.9078    3.2427   -3.0727 C.3       1 <0>        -0.0533
     25 O4         -0.9986    1.8246   -2.8951 O.3       1 <0>        -0.2019
     26 O5          8.7194   -9.0179   -0.6839 O.3       1 <0>        -0.2884
     27 H1          9.6482   -3.9529    0.1405 H         1 <0>         0.1388
     28 H2         11.5132   -5.5014   -0.2737 H         1 <0>         0.1387
     29 H3         11.0810   -7.8897   -0.6630 H         1 <0>         0.1469
     30 H4          7.3338   -4.7793    0.1589 H         1 <0>         0.1498
     31 H5          6.3095   -8.3535    0.0317 H         1 <0>         0.1967
     32 H6          6.6905   -5.0207   -1.3084 H         1 <0>         0.2294
     33 H7          5.4911   -3.1632   -2.8492 H         1 <0>         0.1139
     34 H8          5.7513   -2.4963   -1.2196 H         1 <0>         0.1106
     35 H9          2.9696   -2.6840   -1.6707 H         1 <0>         0.2493
     36 H10         1.3396   -1.8501   -1.7514 H         1 <0>         0.1397
     37 H11        -0.7561   -0.5844   -1.9363 H         1 <0>         0.1501
     38 H12         3.4793    1.4589   -3.4470 H         1 <0>         0.1707
     39 H13         0.2320    4.5994   -4.3104 H         1 <0>         0.1238
     40 H14        -0.1663    3.0487   -5.0941 H         1 <0>         0.0957
     41 H15        -0.6007    3.7126   -2.1384 H         1 <0>         0.0970
     42 H16        -1.8759    3.6366   -3.3821 H         1 <0>         0.1236
     43 H17         8.5099   -9.2353   -1.6026 H         1 <0>         0.2343
@<TRIPOS>BOND
     1    1    6 ar
     2    1    2 ar
     3    1   27 1
     4    2    3 ar
     5    2   28 1
     6    3    4 ar
     7    3   29 1
     8    4    5 ar
     9    4   26 1
    10    5    6 ar
    11    5    7 1
    12    6   30 1
    13    7    8 2
    14    7   31 1
    15    8    9 1
    16    9   10 am
    17    9   32 1
    18   10   11 2
    19   10   12 1
    20   12   13 1
    21   12   33 1
    22   12   34 1
    23   13   14 am
    24   13   35 1
    25   14   15 2
    26   14   16 1
    27   16   21 ar
    28   16   17 ar
    29   17   18 ar
    30   17   36 1
    31   18   19 ar
    32   18   37 1
    33   19   25 1
    34   19   20 ar
    35   20   21 ar
    36   20   22 1
    37   21   38 1
    38   22   23 1
    39   23   24 1
    40   23   39 1
    41   23   40 1
    42   24   25 1
    43   24   41 1
    44   24   42 1
    45   26   43 1
@<TRIPOS>MOLECULE
ZINC03993258
   41    43     0     0     0
SMALL
USER_CHARGES

@<TRIPOS>ATOM
      1 C1          5.2135    0.5053   -1.2972 C.3       1 <0>        -0.1697
      2 C2          5.1931   -0.1858    0.0418 C.2       1 <0>        -0.0516
      3 C3          6.1576   -1.0604    0.3696 C.2       1 <0>        -0.2834
      4 S1          5.6957   -1.5894    2.0083 S.3       1 <0>         0.4070
      5 C4          4.2220   -0.6209    2.2046 C.2       1 <0>        -0.1261
      6 C5          4.1306    0.0857    0.9919 C.2       1 <0>        -0.2298
      7 C6          3.0069    0.9670    0.8720 C.2       1 <0>         0.3630
      8 O1          2.8404    1.6235   -0.1414 O.2       1 <0>        -0.3675
      9 N1          2.1385    1.0586    1.8963 N.am      1 <0>        -0.2382
     10 C7          2.3109    0.3392    3.0349 C.2       1 <0>         0.0956
     11 N2          3.3219   -0.4762    3.1727 N.2       1 <0>        -0.1807
     12 C8          0.9871    1.9573    1.7828 C.3       1 <0>        -0.0537
     13 C9         -0.1771    1.2093    1.1860 C.2       1 <0>         0.2932
     14 O2         -0.0569    0.0403    0.8851 O.2       1 <0>        -0.2972
     15 N3         -1.3502    1.8407    0.9815 N.am      1 <0>        -0.3462
     16 N4         -2.4307    1.1468    0.4214 N.2       1 <0>         0.0208
     17 C10        -3.5247    1.7794    0.1249 C.2       1 <0>        -0.1050
     18 C11        -3.5494    3.2529    0.1340 C.ar      1 <0>        -0.1288
     19 C12        -2.3733    3.9764   -0.0771 C.ar      1 <0>        -0.1339
     20 C13        -2.4041    5.3550   -0.0716 C.ar      1 <0>        -0.1343
     21 C14        -3.5945    6.0258    0.1519 C.ar      1 <0>        -0.1028
     22 C15        -4.7640    5.3215    0.3673 C.ar      1 <0>        -0.1466
     23 C16        -4.7519    3.9362    0.3603 C.ar      1 <0>         0.0951
     24 O3         -5.9007    3.2432    0.5714 O.3       1 <0>        -0.2876
     25 C17         7.3461   -1.4911   -0.4507 C.3       1 <0>        -0.1235
     26 H1          5.7743    1.4366   -1.2169 H         1 <0>         0.0874
     27 H2          5.6890   -0.1428   -2.0334 H         1 <0>         0.0748
     28 H3          4.1920    0.7221   -1.6098 H         1 <0>         0.1170
     29 H4          1.5972    0.4398    3.8392 H         1 <0>         0.1932
     30 H5          1.2455    2.7995    1.1408 H         1 <0>         0.1455
     31 H6          0.7142    2.3249    2.7720 H         1 <0>         0.1098
     32 H7         -1.4463    2.7754    1.2221 H         1 <0>         0.2248
     33 H8         -4.4168    1.2259   -0.1285 H         1 <0>         0.1974
     34 H9         -1.4420    3.4569   -0.2477 H         1 <0>         0.1527
     35 H10        -1.4952    5.9139   -0.2386 H         1 <0>         0.1381
     36 H11        -3.6092    7.1057    0.1583 H         1 <0>         0.1383
     37 H12        -5.6885    5.8518    0.5416 H         1 <0>         0.1469
     38 H13        -6.0341    2.9735    1.4904 H         1 <0>         0.2336
     39 H14         7.9334   -2.2158    0.1132 H         1 <0>         0.0854
     40 H15         7.0011   -1.9466   -1.3790 H         1 <0>         0.0944
     41 H16         7.9635   -0.6225   -0.6798 H         1 <0>         0.0922
@<TRIPOS>BOND
     1    1    2 1
     2    1   26 1
     3    1   27 1
     4    1   28 1
     5    2    6 1
     6    2    3 2
     7    3    4 1
     8    3   25 1
     9    4    5 1
    10    5   11 1
    11    5    6 2
    12    6    7 1
    13    7    8 2
    14    7    9 am
    15    9   10 1
    16    9   12 1
    17   10   11 2
    18   10   29 1
    19   12   13 1
    20   12   30 1
    21   12   31 1
    22   13   14 2
    23   13   15 am
    24   15   16 1
    25   15   32 1
    26   16   17 2
    27   17   18 1
    28   17   33 1
    29   18   23 ar
    30   18   19 ar
    31   19   20 ar
    32   19   34 1
    33   20   21 ar
    34   20   35 1
    35   21   22 ar
    36   21   36 1
    37   22   23 ar
    38   22   37 1
    39   23   24 1
    40   24   38 1
    41   25   39 1
    42   25   40 1
    43   25   41 1
@<TRIPOS>MOLECULE
ZINC03994742
   37    40     0     0     0
SMALL
USER_CHARGES

@<TRIPOS>ATOM
      1 C1         -6.4104   -1.4398   -3.6403 C.3       1 <0>        -0.1758
      2 C2         -5.1497   -1.8667   -2.9336 C.ar      1 <0>        -0.0520
      3 C3         -4.8435   -3.2103   -2.7796 C.ar      1 <0>        -0.1824
      4 C4         -3.6764   -3.5705   -2.1254 C.ar      1 <0>        -0.0535
      5 N1         -2.8559   -2.6565   -1.6548 N.ar      1 <0>        -0.1708
      6 C5         -3.1142   -1.3599   -1.7765 C.ar      1 <0>        -0.0406
      7 C6         -4.2702   -0.9256   -2.4234 C.ar      1 <0>        -0.1274
      8 C7         -2.1634   -0.3667   -1.2259 C.2       1 <0>         0.3391
      9 O1         -2.3927    0.8225   -1.3391 O.2       1 <0>        -0.2339
     10 C8         -0.9447   -0.8174   -0.5438 C.2       1 <0>        -0.0950
     11 C9          0.0021   -0.0041    0.0020 C.2       1 <0>        -0.0192
     12 C10         1.0107   -0.8276    0.5542 C.ar      1 <0>        -0.0809
     13 C11         2.2110   -0.5585    1.2269 C.ar      1 <0>        -0.0831
     14 C12         2.9975   -1.5914    1.6516 C.ar      1 <0>         0.0364
     15 C13         2.6178   -2.9104    1.4230 C.ar      1 <0>        -0.1458
     16 C14         1.4393   -3.1985    0.7720 C.ar      1 <0>        -0.1368
     17 C15         0.6237   -2.1630    0.3250 C.ar      1 <0>        -0.0001
     18 N2         -0.5742   -2.1343   -0.3517 N.pl3     1 <0>        -0.1759
     19 H1         -1.0758   -2.9109   -0.6455 H         1 <0>         0.2622
     20 F1          4.1538   -1.3300    2.2997 F         1 <0>        -0.1244
     21 C16        -0.0184    1.5028    0.0103 C.3       1 <0>         0.0059
     22 C17        -0.7237    1.9888    1.2502 C.2       1 <0>        -0.2279
     23 N3         -1.1503    2.9965    3.0672 N.2       1 <0>        -0.1626
     24 N4         -2.1722    2.2825    2.7458 N.2       1 <0>        -0.1871
     25 N5         -1.9309    1.6621    1.6426 N.2       1 <0>        -0.2206
     26 H2         -6.2087   -1.3245   -4.7052 H         1 <0>         0.0860
     27 H3         -7.1816   -2.1965   -3.4964 H         1 <0>         0.0798
     28 H4         -6.7527   -0.4896   -3.2304 H         1 <0>         0.0932
     29 H5         -5.5085   -3.9687   -3.1656 H         1 <0>         0.1311
     30 H6         -3.4348   -4.6161   -2.0041 H         1 <0>         0.1527
     31 H7         -4.4774    0.1294   -2.5251 H         1 <0>         0.1672
     32 H8          2.5127    0.4624    1.4090 H         1 <0>         0.1601
     33 H9          3.2506   -3.7160    1.7651 H         1 <0>         0.1277
     34 H10         1.1544   -4.2256    0.5978 H         1 <0>         0.1185
     35 H11         1.0042    1.8801    0.0026 H         1 <0>         0.0836
     36 H12        -0.5455    1.8639   -0.8728 H         1 <0>         0.0992
     37 N6         -0.2475    2.8316    2.1726 N.2       1 <0>        -0.2470
@<TRIPOS>BOND
     1    1    2 1
     2    1   26 1
     3    1   27 1
     4    1   28 1
     5    2    7 ar
     6    2    3 ar
     7    3    4 ar
     8    3   29 1
     9    4    5 ar
    10    4   30 1
    11    5    6 ar
    12    6    7 ar
    13    6    8 1
    14    7   31 1
    15    8    9 2
    16    8   10 1
    17   10   18 1
    18   10   11 2
    19   11   12 1
    20   11   21 1
    21   12   17 ar
    22   12   13 ar
    23   13   14 ar
    24   13   32 1
    25   14   15 ar
    26   14   20 1
    27   15   16 ar
    28   15   33 1
    29   16   17 ar
    30   16   34 1
    31   17   18 1
    32   18   19 1
    33   21   22 1
    34   21   35 1
    35   21   36 1
    36   22   25 2
    37   22   37 1
    38   23   24 2
    39   23   37 1
    40   24   25 1
@<TRIPOS>MOLECULE
ZINC03995496
   43    45     0     0     0
SMALL
USER_CHARGES

@<TRIPOS>ATOM
      1 C1          0.3893   -0.3876    0.2202 C.3       1 <0>        -0.2163
      2 C2          0.2425    1.1109    0.1573 C.2       1 <0>        -0.0679
      3 N1         -0.9397    1.6470    0.1389 N.2       1 <0>         0.0142
      4 N2         -2.0790    0.8325    0.1773 N.am      1 <0>        -0.3285
      5 C3         -3.3063    1.3891    0.1581 C.2       1 <0>         0.3676
      6 O1         -3.4248    2.5986    0.1074 O.2       1 <0>        -0.3171
      7 C4         -4.5062    0.5312    0.1986 C.ar      1 <0>        -0.1266
      8 C5         -4.3721   -0.8586    0.2511 C.ar      1 <0>        -0.1035
      9 C6         -5.4935   -1.6577    0.2939 C.ar      1 <0>        -0.1235
     10 C7         -6.7594   -1.0873    0.2743 C.ar      1 <0>         0.0301
     11 C8         -6.9002    0.2998    0.2164 C.ar      1 <0>        -0.0047
     12 C9         -5.7796    1.1064    0.1788 C.ar      1 <0>        -0.0500
     13 O2         -8.2317    0.6022    0.2077 O.3       1 <0>        -0.2005
     14 C10        -8.9005   -0.6210   -0.1520 C.3       1 <0>         0.1062
     15 O3         -8.0014   -1.6496    0.3022 O.3       1 <0>        -0.2044
     16 C11         1.4409    1.9675    0.1107 C.ar      1 <0>        -0.0286
     17 C12         2.7146    1.3920    0.1306 C.ar      1 <0>        -0.1136
     18 C13         3.8323    2.1956    0.0816 C.ar      1 <0>        -0.1425
     19 C14         3.6947    3.5785    0.0241 C.ar      1 <0>         0.0406
     20 C15         2.4290    4.1549    0.0095 C.ar      1 <0>        -0.1114
     21 C16         1.3067    3.3576    0.0524 C.ar      1 <0>        -0.0832
     22 N3          4.8289    4.3891   -0.0195 N.pl3     1 <0>        -0.8269
     23 S1          5.3001    5.2270    1.3289 S.o2      1 <0>         2.6793
     24 O4          6.4639    5.9363    0.9268 O.2       1 <0>        -0.9071
     25 O5          4.1352    5.9246    1.7478 O.2       1 <0>        -0.8988
     26 C17         5.7344    3.9508    2.5426 C.3       1 <0>        -0.8257
     27 H1          0.4333   -0.7050    1.2620 H         1 <0>         0.0988
     28 H2         -0.4652   -0.8572   -0.2670 H         1 <0>         0.0797
     29 H3          1.3062   -0.6845   -0.2891 H         1 <0>         0.0991
     30 H4         -1.9844   -0.1320    0.2178 H         1 <0>         0.2132
     31 H5         -3.3893   -1.3062    0.2620 H         1 <0>         0.1307
     32 H6         -5.3877   -2.7316    0.3385 H         1 <0>         0.1475
     33 H7         -5.8873    2.1801    0.1338 H         1 <0>         0.1736
     34 H8         -9.0358   -0.6801   -1.2319 H         1 <0>         0.0919
     35 H9         -9.8607   -0.6992    0.3579 H         1 <0>         0.1350
     36 H10         2.8222    0.3186    0.1801 H         1 <0>         0.1351
     37 H11         4.8167    1.7514    0.0920 H         1 <0>         0.1352
     38 H12         2.3260    5.2291   -0.0359 H         1 <0>         0.1632
     39 H13         0.3242    3.8059    0.0407 H         1 <0>         0.1689
     40 H14         5.3416    4.4621   -0.8397 H         1 <0>         0.2557
     41 H15         6.5989    3.3902    2.1869 H         1 <0>         0.1342
     42 H16         5.9742    4.4223    3.4957 H         1 <0>         0.1426
     43 H17         4.8911    3.2729    2.6746 H         1 <0>         0.1386
@<TRIPOS>BOND
     1    1    2 1
     2    1   27 1
     3    1   28 1
     4    1   29 1
     5    2    3 2
     6    2   16 1
     7    3    4 1
     8    4    5 am
     9    4   30 1
    10    5    6 2
    11    5    7 1
    12    7   12 ar
    13    7    8 ar
    14    8    9 ar
    15    8   31 1
    16    9   10 ar
    17    9   32 1
    18   10   15 1
    19   10   11 ar
    20   11   12 ar
    21   11   13 1
    22   12   33 1
    23   13   14 1
    24   14   15 1
    25   14   34 1
    26   14   35 1
    27   16   21 ar
    28   16   17 ar
    29   17   18 ar
    30   17   36 1
    31   18   19 ar
    32   18   37 1
    33   19   20 ar
    34   19   22 1
    35   20   21 ar
    36   20   38 1
    37   21   39 1
    38   22   23 1
    39   22   40 1
    40   23   24 2
    41   23   25 2
    42   23   26 1
    43   26   41 1
    44   26   42 1
    45   26   43 1
@<TRIPOS>MOLECULE
ZINC03997186
   45    47     0     0     0
SMALL
USER_CHARGES

@<TRIPOS>ATOM
      1 C1         -0.2403   -0.7797    1.1842 C.3       1 <0>        -0.1902
      2 C2         -0.0548    0.0442   -0.0916 C.3       1 <0>         0.0033
      3 C3          1.3769    0.5122   -0.2158 C.ar      1 <0>        -0.1200
      4 C4          2.5728   -0.1624   -0.3236 C.ar      1 <0>        -0.0736
      5 C5          3.7579    0.5446   -0.4261 C.ar      1 <0>        -0.1503
      6 C6          3.7369    1.9276   -0.4196 C.ar      1 <0>        -0.0986
      7 C7          2.5411    2.6061   -0.3114 C.ar      1 <0>        -0.1535
      8 C8          1.3427    1.9008   -0.2081 C.ar      1 <0>         0.0521
      9 N1          0.0295    2.3533   -0.0912 N.pl3     1 <0>        -0.2150
     10 C9         -0.8580    1.3253   -0.0167 C.2       1 <0>         0.1763
     11 C10        -2.2049    1.4282    0.0969 C.2       1 <0>        -0.3910
     12 C11        -2.9929    0.2708    0.1678 C.2       1 <0>         0.2861
     13 O1         -2.4801   -0.8227    0.0324 O.2       1 <0>        -0.3253
     14 C12        -4.4758    0.3826    0.4118 C.3       1 <0>        -0.2962
     15 S1         -5.2075   -1.2725    0.4495 S.3       1 <0>         0.2822
     16 C13        -6.8943   -0.8547    0.7411 C.2       1 <0>         0.0181
     17 N2         -7.8202   -1.8488    0.8421 N.am      1 <0>        -0.2788
     18 H1         -7.5387   -2.8040    0.7510 H         1 <0>         0.2558
     19 C14        -9.1164   -1.5472    1.0648 C.2       1 <0>         0.3480
     20 O2         -9.9529   -2.4320    1.1558 O.2       1 <0>        -0.3808
     21 C15        -9.4856   -0.2044    1.1891 C.2       1 <0>        -0.4129
     22 C16        -8.5040    0.7707    1.0788 C.2       1 <0>         0.2288
     23 N3         -7.2336    0.4123    0.8625 N.2       1 <0>        -0.3119
     24 N4         -8.8369    2.1053    1.1969 N.pl3     1 <0>        -0.3831
     25 C17        -0.3497    3.7678   -0.0530 C.3       1 <0>        -0.0608
     26 C18        -0.4604   -0.7712   -1.3211 C.3       1 <0>        -0.1887
     27 H2         -1.2973   -0.8062    1.4491 H         1 <0>         0.1105
     28 H3          0.1177   -1.7954    1.0161 H         1 <0>         0.0860
     29 H4          0.3265   -0.3245    1.9963 H         1 <0>         0.0711
     30 H5          2.5856   -1.2424   -0.3287 H         1 <0>         0.1380
     31 H6          4.6969    0.0179   -0.5108 H         1 <0>         0.1358
     32 H7          4.6620    2.4791   -0.5000 H         1 <0>         0.1349
     33 H8          2.5328    3.6861   -0.3070 H         1 <0>         0.1299
     34 H9         -2.6710    2.4018    0.1329 H         1 <0>         0.1383
     35 H10        -4.6361    0.8380    1.2875 H         1 <0>         0.1279
     36 H11        -4.9330    0.9638   -0.3890 H         1 <0>         0.1380
     37 H12       -10.5150    0.0689    1.3680 H         1 <0>         0.1631
     38 H13        -9.7581    2.3631    1.3572 H         1 <0>         0.2365
     39 H14        -8.1494    2.7853    1.1195 H         1 <0>         0.2264
     40 H15        -0.3538    4.1152    0.9801 H         1 <0>         0.0837
     41 H16         0.3674    4.3519   -0.6299 H         1 <0>         0.0932
     42 H17        -1.3448    3.8889   -0.4810 H         1 <0>         0.0955
     43 H18         0.0705   -0.3971   -2.1964 H         1 <0>         0.0691
     44 H19        -0.2060   -1.8191   -1.1622 H         1 <0>         0.0872
     45 H20        -1.5347   -0.6782   -1.4805 H         1 <0>         0.1148
@<TRIPOS>BOND
     1    1    2 1
     2    1   27 1
     3    1   28 1
     4    1   29 1
     5    2   10 1
     6    2    3 1
     7    2   26 1
     8    3    8 ar
     9    3    4 ar
    10    4    5 ar
    11    4   30 1
    12    5    6 ar
    13    5   31 1
    14    6    7 ar
    15    6   32 1
    16    7    8 ar
    17    7   33 1
    18    8    9 1
    19    9   10 1
    20    9   25 1
    21   10   11 2
    22   11   12 1
    23   11   34 1
    24   12   13 2
    25   12   14 1
    26   14   15 1
    27   14   35 1
    28   14   36 1
    29   15   16 1
    30   16   23 2
    31   16   17 1
    32   17   18 1
    33   17   19 am
    34   19   20 2
    35   19   21 1
    36   21   22 2
    37   21   37 1
    38   22   23 1
    39   22   24 1
    40   24   38 1
    41   24   39 1
    42   25   40 1
    43   25   41 1
    44   25   42 1
    45   26   43 1
    46   26   44 1
    47   26   45 1
@<TRIPOS>MOLECULE
ZINC03997186
   45    47     0     0     0
SMALL
USER_CHARGES

@<TRIPOS>ATOM
      1 C1         -0.2403   -0.7797    1.1842 C.3       1 <0>        -0.1906
      2 C2         -0.0548    0.0442   -0.0916 C.3       1 <0>         0.0046
      3 C3          1.3769    0.5122   -0.2158 C.ar      1 <0>        -0.1197
      4 C4          2.5728   -0.1624   -0.3236 C.ar      1 <0>        -0.0736
      5 C5          3.7579    0.5446   -0.4261 C.ar      1 <0>        -0.1526
      6 C6          3.7369    1.9276   -0.4196 C.ar      1 <0>        -0.0995
      7 C7          2.5411    2.6061   -0.3114 C.ar      1 <0>        -0.1559
      8 C8          1.3427    1.9008   -0.2081 C.ar      1 <0>         0.0544
      9 N1          0.0295    2.3533   -0.0912 N.pl3     1 <0>        -0.2180
     10 C9         -0.8580    1.3253   -0.0167 C.2       1 <0>         0.1700
     11 C10        -2.2049    1.4282    0.0969 C.2       1 <0>        -0.3857
     12 C11        -2.9929    0.2708    0.1678 C.2       1 <0>         0.2864
     13 O1         -2.4801   -0.8227    0.0324 O.2       1 <0>        -0.3236
     14 C12        -4.4758    0.3826    0.4118 C.3       1 <0>        -0.3198
     15 S1         -5.2075   -1.2725    0.4495 S.3       1 <0>         0.3382
     16 C13        -6.8943   -0.8547    0.7411 C.ar      1 <0>        -0.0008
     17 N2         -7.8217   -1.8483    0.8324 N.ar      1 <0>        -0.2840
     18 H1        -10.8538   -2.0248    1.3064 H         1 <0>         0.2631
     19 C14        -9.1180   -1.5467    1.0548 C.ar      1 <0>         0.2581
     20 O2         -9.9551   -2.4313    1.1418 O.3       1 <0>        -0.1731
     21 C15        -9.4851   -0.2046    1.1923 C.ar      1 <0>        -0.4867
     22 C16        -8.5027    0.7703    1.0868 C.ar      1 <0>         0.2604
     23 N3         -7.2330    0.4121    0.8664 N.ar      1 <0>        -0.3443
     24 N4         -8.8350    2.1046    1.2090 N.pl3     1 <0>        -0.3863
     25 C17        -0.3497    3.7678   -0.0530 C.3       1 <0>        -0.0597
     26 C18        -0.4604   -0.7712   -1.3211 C.3       1 <0>        -0.1889
     27 H2         -1.2973   -0.8062    1.4491 H         1 <0>         0.1132
     28 H3          0.1177   -1.7954    1.0161 H         1 <0>         0.0855
     29 H4          0.3265   -0.3245    1.9963 H         1 <0>         0.0692
     30 H5          2.5856   -1.2424   -0.3287 H         1 <0>         0.1376
     31 H6          4.6969    0.0179   -0.5108 H         1 <0>         0.1345
     32 H7          4.6620    2.4791   -0.5000 H         1 <0>         0.1334
     33 H8          2.5328    3.6861   -0.3070 H         1 <0>         0.1288
     34 H9         -2.6710    2.4018    0.1329 H         1 <0>         0.1367
     35 H10        -4.6361    0.8380    1.2875 H         1 <0>         0.1234
     36 H11        -4.9330    0.9638   -0.3890 H         1 <0>         0.1323
     37 H12       -10.5140    0.0685    1.3740 H         1 <0>         0.1332
     38 H13        -9.7557    2.3623    1.3723 H         1 <0>         0.2296
     39 H14        -8.1476    2.7847    1.1315 H         1 <0>         0.2307
     40 H15        -0.3538    4.1152    0.9801 H         1 <0>         0.0822
     41 H16         0.3674    4.3519   -0.6299 H         1 <0>         0.0913
     42 H17        -1.3448    3.8889   -0.4810 H         1 <0>         0.0952
     43 H18         0.0705   -0.3971   -2.1964 H         1 <0>         0.0670
     44 H19        -0.2060   -1.8191   -1.1622 H         1 <0>         0.0869
     45 H20        -1.5347   -0.6782   -1.4805 H         1 <0>         0.1171
@<TRIPOS>BOND
     1    1    2 1
     2    1   27 1
     3    1   28 1
     4    1   29 1
     5    2   10 1
     6    2    3 1
     7    2   26 1
     8    3    8 ar
     9    3    4 ar
    10    4    5 ar
    11    4   30 1
    12    5    6 ar
    13    5   31 1
    14    6    7 ar
    15    6   32 1
    16    7    8 ar
    17    7   33 1
    18    8    9 1
    19    9   10 1
    20    9   25 1
    21   10   11 2
    22   11   12 1
    23   11   34 1
    24   12   13 2
    25   12   14 1
    26   14   15 1
    27   14   35 1
    28   14   36 1
    29   15   16 1
    30   16   23 ar
    31   16   17 ar
    32   17   19 ar
    33   18   20 1
    34   19   20 1
    35   19   21 ar
    36   21   37 1
    37   21   22 ar
    38   22   24 1
    39   22   23 ar
    40   24   38 1
    41   24   39 1
    42   25   40 1
    43   25   41 1
    44   25   42 1
    45   26   43 1
    46   26   44 1
    47   26   45 1
@<TRIPOS>MOLECULE
ZINC03997186
   45    47     0     0     0
SMALL
USER_CHARGES

@<TRIPOS>ATOM
      1 C1         -0.2406   -0.7827    1.1551 C.3       1 <0>        -0.1903
      2 C2         -0.0586    0.0449   -0.1188 C.3       1 <0>         0.0016
      3 C3          1.3729    0.5128   -0.2459 C.ar      1 <0>        -0.1183
      4 C4          2.5683   -0.1619   -0.3592 C.ar      1 <0>        -0.0731
      5 C5          3.7533    0.5450   -0.4631 C.ar      1 <0>        -0.1476
      6 C6          3.7328    1.9280   -0.4524 C.ar      1 <0>        -0.0985
      7 C7          2.5376    2.6066   -0.3387 C.ar      1 <0>        -0.1516
      8 C8          1.3392    1.9014   -0.2339 C.ar      1 <0>         0.0486
      9 N1          0.0265    2.3540   -0.1118 N.pl3     1 <0>        -0.2129
     10 C9         -0.8611    1.3260   -0.0377 C.2       1 <0>         0.1830
     11 C10        -2.2076    1.4290    0.0802 C.2       1 <0>        -0.4004
     12 C11        -2.9958    0.2717    0.1500 C.2       1 <0>         0.2963
     13 O1         -2.4838   -0.8216    0.0098 O.2       1 <0>        -0.3088
     14 C12        -4.4779    0.3833    0.3987 C.3       1 <0>        -0.3657
     15 S1         -5.2101   -1.2717    0.4336 S.3       1 <0>         0.3584
     16 C13        -6.8959   -0.8542    0.7315 C.2       1 <0>        -0.0343
     17 N2         -7.8218   -1.8483    0.8323 N.2       1 <0>        -0.2477
     18 H1         -6.5308    1.1190    0.7816 H         1 <0>         0.2356
     19 C14        -9.1164   -1.5472    1.0648 C.2       1 <0>         0.3157
     20 O2         -9.9529   -2.4320    1.1558 O.2       1 <0>        -0.3372
     21 C15        -9.4875   -0.2038    1.1776 C.2       1 <0>        -0.3809
     22 C16        -8.5058    0.7713    1.0675 C.2       1 <0>         0.1972
     23 N3         -7.2353    0.4128    0.8522 N.pl3     1 <0>        -0.2450
     24 N4         -8.8396    2.1061    1.1800 N.pl3     1 <0>        -0.4166
     25 C17        -0.3521    3.7685   -0.0682 C.3       1 <0>        -0.0611
     26 C18        -0.4681   -0.7667   -1.3495 C.3       1 <0>        -0.1888
     27 H2         -1.2968   -0.8097    1.4230 H         1 <0>         0.1096
     28 H3          0.1166   -1.7981    0.9829 H         1 <0>         0.0892
     29 H4          0.3288   -0.3302    1.9668 H         1 <0>         0.0718
     30 H5          2.5807   -1.2419   -0.3676 H         1 <0>         0.1395
     31 H6          4.6919    0.0183   -0.5522 H         1 <0>         0.1372
     32 H7          4.6578    2.4794   -0.5339 H         1 <0>         0.1360
     33 H8          2.5296    3.6866   -0.3310 H         1 <0>         0.1300
     34 H9         -2.6733    2.4027    0.1205 H         1 <0>         0.1330
     35 H10        -4.6355    0.8361    1.2763 H         1 <0>         0.1084
     36 H11        -4.9373    0.9670   -0.3990 H         1 <0>         0.1152
     37 H12       -10.5177    0.0697    1.3514 H         1 <0>         0.1623
     38 H13        -9.7615    2.3641    1.3361 H         1 <0>         0.2505
     39 H14        -8.1521    2.7861    1.1028 H         1 <0>         0.2131
     40 H15        -0.3530    4.1128    0.9659 H         1 <0>         0.0840
     41 H16         0.3635    4.3540   -0.6455 H         1 <0>         0.0950
     42 H17        -1.3484    3.8912   -0.4929 H         1 <0>         0.0935
     43 H18         0.0604   -0.3902   -2.2253 H         1 <0>         0.0702
     44 H19        -0.2136   -1.8151   -1.1945 H         1 <0>         0.0903
     45 H20        -1.5428   -0.6729   -1.5055 H         1 <0>         0.1138
@<TRIPOS>BOND
     1    1    2 1
     2    1   27 1
     3    1   28 1
     4    1   29 1
     5    2   10 1
     6    2    3 1
     7    2   26 1
     8    3    8 ar
     9    3    4 ar
    10    4    5 ar
    11    4   30 1
    12    5    6 ar
    13    5   31 1
    14    6    7 ar
    15    6   32 1
    16    7    8 ar
    17    7   33 1
    18    8    9 1
    19    9   10 1
    20    9   25 1
    21   10   11 2
    22   11   12 1
    23   11   34 1
    24   12   13 2
    25   12   14 1
    26   14   15 1
    27   14   35 1
    28   14   36 1
    29   15   16 1
    30   16   23 1
    31   16   17 2
    32   17   19 1
    33   18   23 1
    34   19   20 2
    35   19   21 1
    36   21   37 1
    37   21   22 2
    38   22   24 1
    39   22   23 1
    40   24   38 1
    41   24   39 1
    42   25   40 1
    43   25   41 1
    44   25   42 1
    45   26   43 1
    46   26   44 1
    47   26   45 1
@<TRIPOS>MOLECULE
ZINC03997187
   45    47     0     0     0
SMALL
USER_CHARGES

@<TRIPOS>ATOM
      1 C1          3.9011   -7.7005    0.3119 C.3       1 <0>        -0.1883
      2 C2          5.0612   -7.3215   -0.6107 C.3       1 <0>        -0.0012
      3 C3          6.3765   -7.7892   -0.0312 C.ar      1 <0>        -0.1327
      4 C4          6.8667   -9.0377    0.2816 C.ar      1 <0>        -0.0729
      5 C5          8.1352   -9.1668    0.8192 C.ar      1 <0>        -0.1561
      6 C6          8.9068   -8.0405    1.0407 C.ar      1 <0>        -0.0929
      7 C7          8.4188   -6.7888    0.7287 C.ar      1 <0>        -0.1561
      8 C8          7.1416   -6.6505    0.1866 C.ar      1 <0>         0.0677
      9 N1          6.4392   -5.5118   -0.2046 N.pl3     1 <0>        -0.2153
     10 C9          5.2057   -5.8166   -0.6897 C.2       1 <0>         0.1411
     11 C10         4.2802   -4.9398   -1.1506 C.2       1 <0>        -0.3811
     12 C11         4.4895   -3.5608   -1.0094 C.2       1 <0>         0.2957
     13 O1          4.7009   -3.0876    0.0899 O.2       1 <0>        -0.3044
     14 C12         4.4525   -2.6651   -2.2208 C.3       1 <0>        -0.3069
     15 S1          4.7561   -0.9538   -1.7155 S.3       1 <0>         0.2737
     16 C13         4.6593   -0.1508   -3.2808 C.2       1 <0>         0.0185
     17 N2          4.8360    1.1982   -3.3509 N.am      1 <0>        -0.2786
     18 H1          5.0182    1.7215   -2.5185 H         1 <0>         0.2560
     19 C14         4.7657    1.8296   -4.5413 C.2       1 <0>         0.3477
     20 O2          4.9236    3.0382   -4.6132 O.2       1 <0>        -0.3794
     21 C15         4.5089    1.0766   -5.6911 C.2       1 <0>        -0.4115
     22 C16         4.3359   -0.2948   -5.5660 C.2       1 <0>         0.2286
     23 N3          4.4171   -0.8668   -4.3596 N.2       1 <0>        -0.3105
     24 N4          4.0816   -1.0658   -6.6826 N.pl3     1 <0>        -0.3824
     25 C17         6.9671   -4.1488   -0.1054 C.3       1 <0>        -0.0641
     26 C18         4.8532   -7.9137   -2.0060 C.3       1 <0>        -0.1910
     27 H2          2.9750   -7.2757   -0.0756 H         1 <0>         0.0834
     28 H3          3.8121   -8.7860    0.3567 H         1 <0>         0.0818
     29 H4          4.0895   -7.3099    1.3119 H         1 <0>         0.0916
     30 H5          6.2615   -9.9151    0.1077 H         1 <0>         0.1331
     31 H6          8.5220  -10.1448    1.0650 H         1 <0>         0.1353
     32 H7          9.8969   -8.1417    1.4600 H         1 <0>         0.1355
     33 H8          9.0274   -5.9141    0.9042 H         1 <0>         0.1337
     34 H9          3.3815   -5.3036   -1.6264 H         1 <0>         0.1634
     35 H10         3.5544   -2.7298   -2.6559 H         1 <0>         0.1314
     36 H11         5.2217   -2.9773   -2.9272 H         1 <0>         0.1400
     37 H12         4.4507    1.5525   -6.6589 H         1 <0>         0.1639
     38 H13         4.0234   -0.6492   -7.5566 H         1 <0>         0.2370
     39 H14         3.9610   -2.0241   -6.5931 H         1 <0>         0.2271
     40 H15         6.7290   -3.7374    0.8755 H         1 <0>         0.1086
     41 H16         8.0488   -4.1675   -0.2387 H         1 <0>         0.0848
     42 H17         6.5163   -3.5274   -0.8791 H         1 <0>         0.0954
     43 H18         5.7106   -7.6728   -2.6345 H         1 <0>         0.0858
     44 H19         4.7514   -8.9962   -1.9298 H         1 <0>         0.0838
     45 H20         3.9495   -7.4939   -2.4479 H         1 <0>         0.0806
@<TRIPOS>BOND
     1    1    2 1
     2    1   27 1
     3    1   28 1
     4    1   29 1
     5    2   10 1
     6    2    3 1
     7    2   26 1
     8    3    8 ar
     9    3    4 ar
    10    4    5 ar
    11    4   30 1
    12    5    6 ar
    13    5   31 1
    14    6    7 ar
    15    6   32 1
    16    7    8 ar
    17    7   33 1
    18    8    9 1
    19    9   10 1
    20    9   25 1
    21   10   11 2
    22   11   12 1
    23   11   34 1
    24   12   13 2
    25   12   14 1
    26   14   15 1
    27   14   35 1
    28   14   36 1
    29   15   16 1
    30   16   23 2
    31   16   17 1
    32   17   18 1
    33   17   19 am
    34   19   20 2
    35   19   21 1
    36   21   22 2
    37   21   37 1
    38   22   23 1
    39   22   24 1
    40   24   38 1
    41   24   39 1
    42   25   40 1
    43   25   41 1
    44   25   42 1
    45   26   43 1
    46   26   44 1
    47   26   45 1
@<TRIPOS>MOLECULE
ZINC03997187
   45    47     0     0     0
SMALL
USER_CHARGES

@<TRIPOS>ATOM
      1 C1          3.9011   -7.7005    0.3119 C.3       1 <0>        -0.1882
      2 C2          5.0612   -7.3215   -0.6107 C.3       1 <0>        -0.0005
      3 C3          6.3765   -7.7892   -0.0312 C.ar      1 <0>        -0.1343
      4 C4          6.8667   -9.0377    0.2816 C.ar      1 <0>        -0.0732
      5 C5          8.1352   -9.1668    0.8192 C.ar      1 <0>        -0.1591
      6 C6          8.9068   -8.0405    1.0407 C.ar      1 <0>        -0.0933
      7 C7          8.4188   -6.7888    0.7287 C.ar      1 <0>        -0.1580
      8 C8          7.1416   -6.6505    0.1866 C.ar      1 <0>         0.0710
      9 N1          6.4392   -5.5118   -0.2046 N.pl3     1 <0>        -0.2162
     10 C9          5.2057   -5.8166   -0.6897 C.2       1 <0>         0.1346
     11 C10         4.2802   -4.9398   -1.1506 C.2       1 <0>        -0.3745
     12 C11         4.4895   -3.5608   -1.0094 C.2       1 <0>         0.2946
     13 O1          4.7009   -3.0876    0.0899 O.2       1 <0>        -0.3036
     14 C12         4.4525   -2.6651   -2.2208 C.3       1 <0>        -0.3303
     15 S1          4.7561   -0.9538   -1.7155 S.3       1 <0>         0.3303
     16 C13         4.6593   -0.1508   -3.2808 C.ar      1 <0>        -0.0002
     17 N2          4.8347    1.1984   -3.3507 N.ar      1 <0>        -0.2838
     18 H1          4.8360    3.3297   -5.5657 H         1 <0>         0.2637
     19 C14         4.7644    1.8298   -4.5411 C.ar      1 <0>         0.2586
     20 O2          4.9218    3.0384   -4.6130 O.3       1 <0>        -0.1728
     21 C15         4.5117    1.0762   -5.6915 C.ar      1 <0>        -0.4858
     22 C16         4.3393   -0.2953   -5.5664 C.ar      1 <0>         0.2608
     23 N3          4.4188   -0.8670   -4.3598 N.ar      1 <0>        -0.3439
     24 N4          4.0867   -1.0665   -6.6833 N.pl3     1 <0>        -0.3855
     25 C17         6.9671   -4.1488   -0.1054 C.3       1 <0>        -0.0647
     26 C18         4.8532   -7.9137   -2.0060 C.3       1 <0>        -0.1908
     27 H2          2.9750   -7.2757   -0.0756 H         1 <0>         0.0831
     28 H3          3.8121   -8.7860    0.3567 H         1 <0>         0.0801
     29 H4          4.0895   -7.3099    1.3119 H         1 <0>         0.0916
     30 H5          6.2615   -9.9151    0.1077 H         1 <0>         0.1318
     31 H6          8.5220  -10.1448    1.0650 H         1 <0>         0.1338
     32 H7          9.8969   -8.1417    1.4600 H         1 <0>         0.1341
     33 H8          9.0274   -5.9141    0.9042 H         1 <0>         0.1337
     34 H9          3.3815   -5.3036   -1.6264 H         1 <0>         0.1611
     35 H10         3.5544   -2.7298   -2.6559 H         1 <0>         0.1269
     36 H11         5.2217   -2.9773   -2.9272 H         1 <0>         0.1342
     37 H12         4.4506    1.5525   -6.6589 H         1 <0>         0.1340
     38 H13         4.0298   -0.6501   -7.5574 H         1 <0>         0.2301
     39 H14         3.9661   -2.0248   -6.5938 H         1 <0>         0.2315
     40 H15         6.7290   -3.7374    0.8755 H         1 <0>         0.1088
     41 H16         8.0488   -4.1675   -0.2387 H         1 <0>         0.0828
     42 H17         6.5163   -3.5274   -0.8791 H         1 <0>         0.0998
     43 H18         5.7106   -7.6728   -2.6345 H         1 <0>         0.0854
     44 H19         4.7514   -8.9962   -1.9298 H         1 <0>         0.0820
     45 H20         3.9495   -7.4939   -2.4479 H         1 <0>         0.0803
@<TRIPOS>BOND
     1    1    2 1
     2    1   27 1
     3    1   28 1
     4    1   29 1
     5    2   10 1
     6    2    3 1
     7    2   26 1
     8    3    8 ar
     9    3    4 ar
    10    4    5 ar
    11    4   30 1
    12    5    6 ar
    13    5   31 1
    14    6    7 ar
    15    6   32 1
    16    7    8 ar
    17    7   33 1
    18    8    9 1
    19    9   10 1
    20    9   25 1
    21   10   11 2
    22   11   12 1
    23   11   34 1
    24   12   13 2
    25   12   14 1
    26   14   15 1
    27   14   35 1
    28   14   36 1
    29   15   16 1
    30   16   23 ar
    31   16   17 ar
    32   17   19 ar
    33   18   20 1
    34   19   20 1
    35   19   21 ar
    36   21   37 1
    37   21   22 ar
    38   22   24 1
    39   22   23 ar
    40   24   38 1
    41   24   39 1
    42   25   40 1
    43   25   41 1
    44   25   42 1
    45   26   43 1
    46   26   44 1
    47   26   45 1
@<TRIPOS>MOLECULE
ZINC03997187
   45    47     0     0     0
SMALL
USER_CHARGES

@<TRIPOS>ATOM
      1 C1          3.8983   -7.7001    0.3122 C.3       1 <0>        -0.1882
      2 C2          5.0589   -7.3211   -0.6098 C.3       1 <0>        -0.0020
      3 C3          6.3739   -7.7887   -0.0296 C.ar      1 <0>        -0.1324
      4 C4          6.8640   -9.0372    0.2836 C.ar      1 <0>        -0.0732
      5 C5          8.1322   -9.1662    0.8219 C.ar      1 <0>        -0.1536
      6 C6          8.9036   -8.0398    1.0437 C.ar      1 <0>        -0.0923
      7 C7          8.4157   -6.7882    0.7313 C.ar      1 <0>        -0.1534
      8 C8          7.1388   -6.6500    0.1885 C.ar      1 <0>         0.0648
      9 N1          6.4366   -5.5113   -0.2031 N.pl3     1 <0>        -0.2139
     10 C9          5.2033   -5.8162   -0.6889 C.2       1 <0>         0.1468
     11 C10         4.2780   -4.9395   -1.1503 C.2       1 <0>        -0.3926
     12 C11         4.4872   -3.5605   -1.0091 C.2       1 <0>         0.3063
     13 O1          4.6980   -3.0872    0.0903 O.2       1 <0>        -0.2868
     14 C12         4.4508   -2.6649   -2.2206 C.3       1 <0>        -0.3770
     15 S1          4.7541   -0.9535   -1.7152 S.3       1 <0>         0.3504
     16 C13         4.6581   -0.1506   -3.2806 C.2       1 <0>        -0.0340
     17 N2          4.8347    1.1984   -3.3507 N.2       1 <0>        -0.2462
     18 H1          4.2916   -1.8553   -4.2752 H         1 <0>         0.2359
     19 C14         4.7657    1.8296   -4.5413 C.2       1 <0>         0.3154
     20 O2          4.9236    3.0382   -4.6132 O.2       1 <0>        -0.3356
     21 C15         4.5098    1.0765   -5.6912 C.2       1 <0>        -0.3805
     22 C16         4.3368   -0.2949   -5.5661 C.2       1 <0>         0.1977
     23 N3          4.4169   -0.8668   -4.3596 N.pl3     1 <0>        -0.2451
     24 N4          4.0830   -1.0660   -6.6828 N.pl3     1 <0>        -0.4160
     25 C17         6.9643   -4.1483   -0.1037 C.3       1 <0>        -0.0650
     26 C18         4.8517   -7.9134   -2.0052 C.3       1 <0>        -0.1908
     27 H2          2.9724   -7.2754   -0.0759 H         1 <0>         0.0831
     28 H3          3.8093   -8.7856    0.3570 H         1 <0>         0.0830
     29 H4          4.0861   -7.3094    1.3122 H         1 <0>         0.0932
     30 H5          6.2589   -9.9146    0.1094 H         1 <0>         0.1336
     31 H6          8.5189  -10.1441    1.0679 H         1 <0>         0.1365
     32 H7          9.8935   -8.1409    1.4635 H         1 <0>         0.1370
     33 H8          9.0242   -5.9134    0.9071 H         1 <0>         0.1352
     34 H9          3.3796   -5.3034   -1.6266 H         1 <0>         0.1613
     35 H10         3.5530   -2.7296   -2.6561 H         1 <0>         0.1124
     36 H11         5.2204   -2.9771   -2.9265 H         1 <0>         0.1168
     37 H12         4.4477    1.5529   -6.6585 H         1 <0>         0.1631
     38 H13         4.0251   -0.6494   -7.5568 H         1 <0>         0.2510
     39 H14         3.9624   -2.0243   -6.5933 H         1 <0>         0.2138
     40 H15         6.7257   -3.7368    0.8770 H         1 <0>         0.1123
     41 H16         8.0461   -4.1670   -0.2364 H         1 <0>         0.0874
     42 H17         6.5139   -3.5270   -0.8777 H         1 <0>         0.0927
     43 H18         5.7094   -7.6725   -2.6333 H         1 <0>         0.0845
     44 H19         4.7499   -8.9959   -1.9290 H         1 <0>         0.0858
     45 H20         3.9482   -7.4937   -2.4476 H         1 <0>         0.0786
@<TRIPOS>BOND
     1    1    2 1
     2    1   27 1
     3    1   28 1
     4    1   29 1
     5    2   10 1
     6    2    3 1
     7    2   26 1
     8    3    8 ar
     9    3    4 ar
    10    4    5 ar
    11    4   30 1
    12    5    6 ar
    13    5   31 1
    14    6    7 ar
    15    6   32 1
    16    7    8 ar
    17    7   33 1
    18    8    9 1
    19    9   10 1
    20    9   25 1
    21   10   11 2
    22   11   12 1
    23   11   34 1
    24   12   13 2
    25   12   14 1
    26   14   15 1
    27   14   35 1
    28   14   36 1
    29   15   16 1
    30   16   23 1
    31   16   17 2
    32   17   19 1
    33   18   23 1
    34   19   20 2
    35   19   21 1
    36   21   37 1
    37   21   22 2
    38   22   24 1
    39   22   23 1
    40   24   38 1
    41   24   39 1
    42   25   40 1
    43   25   41 1
    44   25   42 1
    45   26   43 1
    46   26   44 1
    47   26   45 1
@<TRIPOS>MOLECULE
ZINC03997306
   44    46     0     0     0
SMALL
USER_CHARGES

@<TRIPOS>ATOM
      1 C1         -9.6591    5.4915    0.4536 C.ar      1 <0>        -0.1601
      2 C2         -8.4707    6.1576    0.4452 C.ar      1 <0>        -0.1308
      3 C3         -7.2711    5.4608    0.3084 C.ar      1 <0>        -0.0146
      4 C4         -7.2796    4.0575    0.1664 C.ar      1 <0>         0.0200
      5 C5         -8.4867    3.3730    0.1746 C.ar      1 <0>        -0.1766
      6 C6         -9.6891    4.0885    0.3189 C.ar      1 <0>         0.0746
      7 N1        -10.8601    3.4382    0.3277 N.4       1 <0>        -0.0687
      8 O1        -10.8845    2.2261    0.2108 O.2       1 <0>        -0.2974
      9 O2        -11.9005    4.0591    0.4527 O.3       1 <0>        -0.2466
     10 C7         -6.0122    3.3210    0.0160 C.2       1 <0>        -0.1271
     11 N2         -4.8930    3.9702   -0.0917 N.2       1 <0>         0.0748
     12 N3         -3.7015    3.2761   -0.3396 N.am      1 <0>        -0.3357
     13 C8         -2.5267    3.9365   -0.3511 C.2       1 <0>         0.3608
     14 O3         -2.5086    5.1467   -0.2375 O.2       1 <0>        -0.3097
     15 C9         -1.2581    3.1880   -0.5022 C.ar      1 <0>        -0.0880
     16 C10        -1.2567    1.7963   -0.6401 C.ar      1 <0>        -0.1727
     17 C11        -0.0498    1.1378   -0.7734 C.ar      1 <0>        -0.0490
     18 N4          1.0876    1.8041   -0.7820 N.ar      1 <0>        -0.1506
     19 C12         1.1308    3.1160   -0.6598 C.ar      1 <0>        -0.0511
     20 C13        -0.0282    3.8537   -0.5166 C.ar      1 <0>        -0.1293
     21 N5         -6.0723    6.1462    0.3066 N.pl3     1 <0>        -0.1653
     22 C14        -6.0810    7.2309   -0.7081 C.3       1 <0>        -0.0834
     23 C15        -4.9537    8.1775   -0.2247 C.3       1 <0>        -0.1624
     24 C16        -5.0971    8.1285    1.3139 C.3       1 <0>        -0.1691
     25 C17        -5.8406    6.8121    1.6067 C.3       1 <0>        -0.0800
     26 H1        -10.5824    6.0408    0.5643 H         1 <0>         0.1464
     27 H2         -8.4576    7.2325    0.5498 H         1 <0>         0.1404
     28 H3         -8.5029    2.2982    0.0706 H         1 <0>         0.1483
     29 H4        -12.7204    3.5464    0.4533 H         1 <0>         0.2544
     30 H5         -6.0142    2.2412   -0.0046 H         1 <0>         0.1117
     31 H6         -3.7222    2.3202   -0.5030 H         1 <0>         0.2023
     32 H7         -2.1850    1.2443   -0.6387 H         1 <0>         0.1319
     33 H8         -0.0381    0.0628   -0.8765 H         1 <0>         0.1625
     34 H9          2.0854    3.6209   -0.6721 H         1 <0>         0.1667
     35 H10         0.0147    4.9283   -0.4177 H         1 <0>         0.1648
     36 H11        -5.8524    6.8342   -1.6973 H         1 <0>         0.1050
     37 H12        -7.0412    7.7467   -0.7117 H         1 <0>         0.0565
     38 H13        -5.1148    9.1899   -0.5950 H         1 <0>         0.0777
     39 H14        -3.9773    7.8037   -0.5331 H         1 <0>         0.1141
     40 H15        -5.6804    8.9790    1.6667 H         1 <0>         0.0746
     41 H16        -4.1144    8.1210    1.7854 H         1 <0>         0.0939
     42 H17        -6.7940    7.0239    2.0906 H         1 <0>         0.0589
     43 H18        -5.2327    6.1736    2.2478 H         1 <0>         0.1049
     44 H19       -10.9901    2.7864   -0.4195 H         1 <0>         0.3233
@<TRIPOS>BOND
     1    1    6 ar
     2    1    2 ar
     3    1   26 1
     4    2    3 ar
     5    2   27 1
     6    3    4 ar
     7    3   21 1
     8    4    5 ar
     9    4   10 1
    10    5    6 ar
    11    5   28 1
    12    6    7 1
    13    7    8 2
    14    7    9 1
    15    9   29 1
    16   10   11 2
    17   10   30 1
    18   11   12 1
    19   12   13 am
    20   12   31 1
    21   13   14 2
    22   13   15 1
    23   15   20 ar
    24   15   16 ar
    25   16   17 ar
    26   16   32 1
    27   17   18 ar
    28   17   33 1
    29   18   19 ar
    30   19   20 ar
    31   19   34 1
    32   20   35 1
    33   21   25 1
    34   21   22 1
    35   22   23 1
    36   22   36 1
    37   22   37 1
    38   23   24 1
    39   23   38 1
    40   23   39 1
    41   24   25 1
    42   24   40 1
    43   24   41 1
    44   25   42 1
    45   25   43 1
    46    7   44 1
@<TRIPOS>MOLECULE
ZINC03997416
   41    42     0     0     0
SMALL
USER_CHARGES

@<TRIPOS>ATOM
      1 C1         -1.6195    0.5872   -2.9716 C.3       1 <0>        -0.2400
      2 C2         -1.6950   -0.8421   -2.5002 C.2       1 <0>         0.2989
      3 O1         -2.4601   -1.1475   -1.6100 O.2       1 <0>        -0.3422
      4 N1         -0.9124   -1.7812   -3.0679 N.am      1 <0>        -0.3328
      5 C3         -0.9156   -3.0892   -2.5700 C.ar      1 <0>         0.0549
      6 C4          0.2586   -3.8328   -2.5626 C.ar      1 <0>        -0.1409
      7 C5          0.2619   -5.1233   -2.0676 C.ar      1 <0>        -0.1200
      8 C6         -0.9030   -5.6860   -1.5870 C.ar      1 <0>        -0.1294
      9 C7         -2.0889   -4.9494   -1.5949 C.ar      1 <0>        -0.1106
     10 C8         -2.0909   -3.6449   -2.0897 C.ar      1 <0>        -0.0638
     11 C9         -3.3381   -5.5496   -1.0813 C.2       1 <0>         0.3577
     12 O2         -4.3886   -4.9450   -1.1801 O.2       1 <0>        -0.3104
     13 N2         -3.3130   -6.7669   -0.5035 N.am      1 <0>        -0.3482
     14 N3         -4.4756   -7.2912    0.0765 N.2       1 <0>         0.0263
     15 C10        -4.4263   -8.4112    0.7310 C.2       1 <0>        -0.1126
     16 C11        -3.1238   -9.0303    1.0350 C.ar      1 <0>        -0.0818
     17 C12        -1.9763   -8.2384    1.1360 C.ar      1 <0>        -0.1798
     18 C13        -0.7599   -8.8212    1.4210 C.ar      1 <0>        -0.0952
     19 C14        -0.6675  -10.1898    1.6088 C.ar      1 <0>        -0.2041
     20 C15        -1.7967  -10.9873    1.5117 C.ar      1 <0>         0.0741
     21 C16        -3.0308  -10.4134    1.2297 C.ar      1 <0>         0.0636
     22 O3         -4.1411  -11.1919    1.1389 O.3       1 <0>        -0.2733
     23 O4         -1.6982  -12.3310    1.6974 O.3       1 <0>        -0.1989
     24 C17        -0.4001  -12.8521    1.9894 C.3       1 <0>        -0.0655
     25 H1         -2.3201    1.1959   -2.3999 H         1 <0>         0.1220
     26 H2         -0.6074    0.9648   -2.8260 H         1 <0>         0.0957
     27 H3         -1.8763    0.6349   -4.0298 H         1 <0>         0.0960
     28 H4         -0.3469   -1.5504   -3.8214 H         1 <0>         0.2328
     29 H5          1.1725   -3.3994   -2.9415 H         1 <0>         0.1318
     30 H6          1.1783   -5.6948   -2.0609 H         1 <0>         0.1336
     31 H7         -0.8973   -6.6963   -1.2051 H         1 <0>         0.1245
     32 H8         -3.0051   -3.0699   -2.0981 H         1 <0>         0.1923
     33 H9         -2.4900   -7.2801   -0.4892 H         1 <0>         0.2305
     34 H10        -5.3396   -8.8894    1.0527 H         1 <0>         0.1978
     35 H11        -2.0427   -7.1703    0.9912 H         1 <0>         0.1576
     36 H12         0.1251   -8.2072    1.4986 H         1 <0>         0.1364
     37 H13         0.2894  -10.6382    1.8318 H         1 <0>         0.1410
     38 H14        -4.2717  -11.5906    0.2676 H         1 <0>         0.2309
     39 H15         0.2780  -12.6195    1.1683 H         1 <0>         0.0662
     40 H16        -0.0258  -12.4012    2.9085 H         1 <0>         0.0716
     41 H17        -0.4621  -13.9332    2.1142 H         1 <0>         0.1133
@<TRIPOS>BOND
     1    1    2 1
     2    1   25 1
     3    1   26 1
     4    1   27 1
     5    2    3 2
     6    2    4 am
     7    4    5 1
     8    4   28 1
     9    5   10 ar
    10    5    6 ar
    11    6    7 ar
    12    6   29 1
    13    7    8 ar
    14    7   30 1
    15    8    9 ar
    16    8   31 1
    17    9   10 ar
    18    9   11 1
    19   10   32 1
    20   11   12 2
    21   11   13 am
    22   13   14 1
    23   13   33 1
    24   14   15 2
    25   15   16 1
    26   15   34 1
    27   16   21 ar
    28   16   17 ar
    29   17   18 ar
    30   17   35 1
    31   18   19 ar
    32   18   36 1
    33   19   20 ar
    34   19   37 1
    35   20   21 ar
    36   20   23 1
    37   21   22 1
    38   22   38 1
    39   23   24 1
    40   24   39 1
    41   24   40 1
    42   24   41 1
@<TRIPOS>MOLECULE
ZINC03997530
   42    44     0     0     0
SMALL
USER_CHARGES

@<TRIPOS>ATOM
      1 C1          3.6470   -0.8681   -0.8333 C.ar      1 <0>        -0.1808
      2 C2          4.8340   -0.1654   -0.8301 C.ar      1 <0>        -0.0143
      3 C3          5.9349   -0.6637   -0.1559 C.ar      1 <0>        -0.7827
      4 C4          5.8521   -1.8660    0.5241 C.ar      1 <0>        -0.0164
      5 C5          4.6698   -2.5763    0.5341 C.ar      1 <0>        -0.1680
      6 C6          3.5546   -2.0794   -0.1442 C.ar      1 <0>         0.0584
      7 N1          2.3783   -2.7790   -0.1384 N.2       1 <0>        -0.1649
      8 C7          1.2813   -2.2072    0.2762 C.2       1 <0>         0.0334
      9 C8          1.3379   -0.8858    0.9142 C.ar      1 <0>        -0.1786
     10 C9          2.4974   -0.4774    1.5838 C.ar      1 <0>        -0.0761
     11 C10         2.5455    0.7614    2.1803 C.ar      1 <0>        -0.1647
     12 C11         1.4453    1.6113    2.1211 C.ar      1 <0>         0.1105
     13 C12         0.2909    1.2170    1.4604 C.ar      1 <0>        -0.1896
     14 C13         0.2286   -0.0261    0.8559 C.ar      1 <0>         0.1142
     15 O1         -0.9000   -0.4134    0.2095 O.3       1 <0>        -0.2896
     16 O2          1.5016    2.8317    2.7130 O.3       1 <0>        -0.2902
     17 S1          7.4494    0.2367   -0.1638 S.o2      1 <0>         2.7825
     18 O3          7.1132    1.5947   -0.4131 O.2       1 <0>        -0.9177
     19 O4          8.1698   -0.1700    0.9915 O.2       1 <0>        -0.9150
     20 N2          8.3211   -0.2829   -1.4724 N.pl3     1 <0>        -0.8496
     21 C14         9.2837   -1.3942   -1.4742 C.3       1 <0>         0.0023
     22 C15         9.8646   -1.4951   -2.9002 C.3       1 <0>        -0.1710
     23 C16         9.6241   -0.0731   -3.4725 C.3       1 <0>        -0.1693
     24 C17         8.2653    0.2962   -2.8270 C.3       1 <0>        -0.0043
     25 H1          2.7898   -0.4803   -1.3636 H         1 <0>         0.1484
     26 H2          4.9056    0.7736   -1.3587 H         1 <0>         0.1501
     27 H3          6.7151   -2.2488    1.0484 H         1 <0>         0.1519
     28 H4          4.6064   -3.5144    1.0655 H         1 <0>         0.1495
     29 H5          0.3315   -2.7058    0.1502 H         1 <0>         0.1707
     30 H6          3.3533   -1.1342    1.6322 H         1 <0>         0.1608
     31 H7          3.4391    1.0736    2.7005 H         1 <0>         0.1524
     32 H8         -0.5598    1.8810    1.4177 H         1 <0>         0.1551
     33 H9         -1.5032   -0.9396    0.7522 H         1 <0>         0.2344
     34 H10         1.8282    3.5346    2.1348 H         1 <0>         0.2380
     35 H11        10.0823   -1.1941   -0.7599 H         1 <0>         0.0946
     36 H12         8.7769   -2.3240   -1.2159 H         1 <0>         0.0765
     37 H13         9.3298   -2.2423   -3.4865 H         1 <0>         0.0917
     38 H14        10.9301   -1.7226   -2.8679 H         1 <0>         0.0948
     39 H15         9.5466   -0.0974   -4.5595 H         1 <0>         0.0937
     40 H16        10.4078    0.6141   -3.1536 H         1 <0>         0.0978
     41 H17         7.4442   -0.1429   -3.3937 H         1 <0>         0.0772
     42 H18         8.1531    1.3791   -2.7722 H         1 <0>         0.1041
@<TRIPOS>BOND
     1    1    6 ar
     2    1    2 ar
     3    1   25 1
     4    2    3 ar
     5    2   26 1
     6    3    4 ar
     7    3   17 1
     8    4    5 ar
     9    4   27 1
    10    5    6 ar
    11    5   28 1
    12    6    7 1
    13    7    8 2
    14    8    9 1
    15    8   29 1
    16    9   14 ar
    17    9   10 ar
    18   10   11 ar
    19   10   30 1
    20   11   12 ar
    21   11   31 1
    22   12   13 ar
    23   12   16 1
    24   13   14 ar
    25   13   32 1
    26   14   15 1
    27   15   33 1
    28   16   34 1
    29   17   18 2
    30   17   19 2
    31   17   20 1
    32   20   24 1
    33   20   21 1
    34   21   22 1
    35   21   35 1
    36   21   36 1
    37   22   23 1
    38   22   37 1
    39   22   38 1
    40   23   24 1
    41   23   39 1
    42   23   40 1
    43   24   41 1
    44   24   42 1
@<TRIPOS>MOLECULE
ZINC03997564
   41    43     0     0     0
SMALL
USER_CHARGES

@<TRIPOS>ATOM
      1 C1         -9.2351    0.3193   -1.2082 C.3       1 <0>        -0.1964
      2 C2         -8.1662   -0.5090   -0.4925 C.3       1 <0>        -0.1885
      3 C3         -6.8681    0.2563   -0.4718 C.2       1 <0>         0.3009
      4 O1         -6.8042    1.3558   -0.9795 O.2       1 <0>        -0.3452
      5 N1         -5.7782   -0.2813    0.1109 N.am      1 <0>        -0.3312
      6 C4         -4.5560    0.3872    0.0538 C.ar      1 <0>         0.0904
      7 C5         -4.5222    1.7774    0.1038 C.ar      1 <0>        -0.1383
      8 C6         -3.3174    2.4406    0.0482 C.ar      1 <0>        -0.0428
      9 C7         -2.1266    1.7158   -0.0592 C.ar      1 <0>        -0.1499
     10 C8         -2.1648    0.3193   -0.1155 C.ar      1 <0>        -0.0897
     11 C9         -3.3728   -0.3375   -0.0526 C.ar      1 <0>        -0.1732
     12 C10        -0.8338    2.4228   -0.1190 C.2       1 <0>         0.3631
     13 O2         -0.8025    3.6373   -0.0750 O.2       1 <0>        -0.3058
     14 N2          0.3131    1.7225   -0.2226 N.am      1 <0>        -0.3287
     15 N3          1.5409    2.3944   -0.2852 N.2       1 <0>         0.1173
     16 C11         2.6615    1.7135   -0.2885 C.2       1 <0>        -0.1339
     17 C12         2.8231    0.2424   -0.3542 C.ar      1 <0>        -0.1467
     18 C13         1.9200   -0.8123   -0.4270 C.ar      1 <0>        -0.0765
     19 C14         2.3862   -2.1108   -0.4767 C.ar      1 <0>        -0.1539
     20 C15         3.7482   -2.3603   -0.4541 C.ar      1 <0>        -0.0816
     21 C16         4.6524   -1.3201   -0.3820 C.ar      1 <0>        -0.1545
     22 C17         4.2016   -0.0055   -0.3311 C.ar      1 <0>         0.0812
     23 N4          4.8849    1.2032   -0.2565 N.am      1 <0>        -0.3056
     24 C18         4.0375    2.2461   -0.2341 C.2       1 <0>         0.3746
     25 O3          4.3491    3.4211   -0.1765 O.2       1 <0>        -0.2886
     26 H1         -9.3777    1.2624   -0.6806 H         1 <0>         0.0917
     27 H2         -8.9152    0.5198   -2.2307 H         1 <0>         0.0930
     28 H3        -10.1740   -0.2342   -1.2232 H         1 <0>         0.0752
     29 H4         -8.0236   -1.4520   -1.0202 H         1 <0>         0.1017
     30 H5         -8.4861   -0.7095    0.5300 H         1 <0>         0.1006
     31 H6         -5.8441   -1.1332    0.5699 H         1 <0>         0.2341
     32 H7         -5.4424    2.3366    0.1868 H         1 <0>         0.1741
     33 H8         -3.2919    3.5196    0.0878 H         1 <0>         0.1651
     34 H9         -1.2473   -0.2436   -0.2029 H         1 <0>         0.1204
     35 H10        -3.4028   -1.4164   -0.0912 H         1 <0>         0.1328
     36 H11         0.2882    0.7535   -0.2577 H         1 <0>         0.2221
     37 H12         0.8580   -0.6165   -0.4445 H         1 <0>         0.1216
     38 H13         1.6881   -2.9329   -0.5330 H         1 <0>         0.1371
     39 H14         4.1061   -3.3785   -0.4930 H         1 <0>         0.1390
     40 H15         5.7121   -1.5275   -0.3647 H         1 <0>         0.1380
     41 H16         5.8511    1.2837   -0.2287 H         1 <0>         0.2570
@<TRIPOS>BOND
     1    1    2 1
     2    1   26 1
     3    1   27 1
     4    1   28 1
     5    2    3 1
     6    2   29 1
     7    2   30 1
     8    3    4 2
     9    3    5 am
    10    5    6 1
    11    5   31 1
    12    6   11 ar
    13    6    7 ar
    14    7    8 ar
    15    7   32 1
    16    8    9 ar
    17    8   33 1
    18    9   10 ar
    19    9   12 1
    20   10   11 ar
    21   10   34 1
    22   11   35 1
    23   12   13 2
    24   12   14 am
    25   14   15 1
    26   14   36 1
    27   15   16 2
    28   16   24 1
    29   16   17 1
    30   17   22 ar
    31   17   18 ar
    32   18   19 ar
    33   18   37 1
    34   19   20 ar
    35   19   38 1
    36   20   21 ar
    37   20   39 1
    38   21   22 ar
    39   21   40 1
    40   22   23 1
    41   23   24 am
    42   23   41 1
    43   24   25 2
@<TRIPOS>MOLECULE
ZINC03998911
   43    45     0     0     0
SMALL
USER_CHARGES

@<TRIPOS>ATOM
      1 C1         -1.7139   10.8838    0.8248 C.3       1 <0>        -0.2348
      2 C2         -1.6277   10.2292    2.2050 C.3       1 <0>        -0.0156
      3 N1         -2.5361    9.0812    2.2586 N.pl3     1 <0>        -0.1771
      4 C3         -3.8400    9.1029    2.6481 C.2       1 <0>         0.0250
      5 N2         -4.3491    7.9083    2.5749 N.2       1 <0>        -0.1653
      6 C4         -3.4046    7.0374    2.1326 C.ar      1 <0>        -0.0574
      7 C5         -2.2278    7.7804    1.9239 C.ar      1 <0>        -0.0302
      8 C6         -1.0763    7.1505    1.4655 C.ar      1 <0>        -0.1319
      9 C7         -1.0820    5.8089    1.2160 C.ar      1 <0>        -0.1034
     10 C8         -2.2448    5.0537    1.4183 C.ar      1 <0>        -0.1553
     11 C9         -3.4085    5.6684    1.8713 C.ar      1 <0>         0.0058
     12 C10        -2.2374    3.6031    1.1445 C.2       1 <0>         0.3639
     13 O1         -3.2682    2.9632    1.2279 O.2       1 <0>        -0.3206
     14 N3         -1.0881    2.9878    0.8021 N.am      1 <0>        -0.3453
     15 N4         -1.0991    1.6346    0.4393 N.2       1 <0>         0.0284
     16 C11        -0.0152    1.0717   -0.0005 C.2       1 <0>        -0.1114
     17 C12         1.1588    1.8964   -0.3376 C.ar      1 <0>        -0.1039
     18 C13         0.9931    3.2297   -0.7233 C.ar      1 <0>        -0.1484
     19 C14         2.0938    3.9978   -1.0379 C.ar      1 <0>        -0.1230
     20 C15         3.3660    3.4553   -0.9742 C.ar      1 <0>        -0.1353
     21 C16         3.5454    2.1349   -0.5934 C.ar      1 <0>         0.0498
     22 C17         2.4457    1.3499   -0.2677 C.ar      1 <0>         0.0687
     23 O2          2.6185    0.0564    0.1119 O.3       1 <0>        -0.2826
     24 O3          4.7982    1.6089   -0.5331 O.3       1 <0>        -0.2858
     25 C18        -4.5856   10.3325    3.0987 C.3       1 <0>        -0.1403
     26 H1         -1.4300   10.1599    0.0610 H         1 <0>         0.0908
     27 H2         -2.7351   11.2199    0.6452 H         1 <0>         0.0877
     28 H3         -1.0379   11.7380    0.7849 H         1 <0>         0.0874
     29 H4         -1.9115   10.9531    2.9689 H         1 <0>         0.1013
     30 H5         -0.6064    9.8931    2.3846 H         1 <0>         0.1023
     31 H6         -0.1751    7.7242    1.3069 H         1 <0>         0.1267
     32 H7         -0.1839    5.3257    0.8604 H         1 <0>         0.1247
     33 H8         -4.3066    5.0881    2.0231 H         1 <0>         0.1718
     34 H9         -0.2534    3.4819    0.8068 H         1 <0>         0.2281
     35 H10         0.0247   -0.0005   -0.1235 H         1 <0>         0.1896
     36 H11         0.0031    3.6581   -0.7744 H         1 <0>         0.1567
     37 H12         1.9631    5.0278   -1.3352 H         1 <0>         0.1379
     38 H13         4.2228    4.0641   -1.2227 H         1 <0>         0.1459
     39 H14         2.6820   -0.5650   -0.6262 H         1 <0>         0.2388
     40 H15         5.2257    1.7090    0.3285 H         1 <0>         0.2366
     41 H16        -5.0521   10.8106    2.2374 H         1 <0>         0.0998
     42 H17        -5.3544   10.0483    3.8172 H         1 <0>         0.1167
     43 H18        -3.8895   11.0280    3.5676 H         1 <0>         0.0827
@<TRIPOS>BOND
     1    1    2 1
     2    1   26 1
     3    1   27 1
     4    1   28 1
     5    2    3 1
     6    2   29 1
     7    2   30 1
     8    3    7 1
     9    3    4 1
    10    4    5 2
    11    4   25 1
    12    5    6 1
    13    6   11 ar
    14    6    7 ar
    15    7    8 ar
    16    8    9 ar
    17    8   31 1
    18    9   10 ar
    19    9   32 1
    20   10   11 ar
    21   10   12 1
    22   11   33 1
    23   12   13 2
    24   12   14 am
    25   14   15 1
    26   14   34 1
    27   15   16 2
    28   16   17 1
    29   16   35 1
    30   17   22 ar
    31   17   18 ar
    32   18   19 ar
    33   18   36 1
    34   19   20 ar
    35   19   37 1
    36   20   21 ar
    37   20   38 1
    38   21   22 ar
    39   21   24 1
    40   22   23 1
    41   23   39 1
    42   24   40 1
    43   25   41 1
    44   25   42 1
    45   25   43 1
@<TRIPOS>MOLECULE
ZINC04000920
   46    48     0     0     0
SMALL
USER_CHARGES

@<TRIPOS>ATOM
      1 C1         -1.1696    1.7277   -0.4873 C.ar      1 <0>        -0.0945
      2 C2          0.0358    1.0906   -0.7229 C.ar      1 <0>        -0.1343
      3 C3          1.2122    1.8112   -0.7209 C.ar      1 <0>        -0.0576
      4 C4          1.1852    3.1849   -0.4754 C.ar      1 <0>        -0.1301
      5 C5         -0.0336    3.8205   -0.2333 C.ar      1 <0>        -0.1046
      6 C6         -1.2029    3.0883   -0.2381 C.ar      1 <0>        -0.1320
      7 C7          2.4420    3.9634   -0.4723 C.2       1 <0>         0.3546
      8 O1          3.5020    3.4073   -0.6839 O.2       1 <0>        -0.3501
      9 N1          2.4126    5.2898   -0.2349 N.am      1 <0>        -0.2975
     10 N2          3.6036    6.0275   -0.2320 N.pl3     1 <0>        -0.1678
     11 C8          3.5741    7.3522    0.0051 C.2       1 <0>         0.1508
     12 C9          4.7592    8.0658    0.1018 C.2       1 <0>        -0.3820
     13 C10         6.0640    7.3909    0.0955 C.2       1 <0>         0.2665
     14 N3          7.1574    8.1303    0.1865 N.2       1 <0>        -0.3498
     15 C11         7.1067    9.4552    0.2929 C.2       1 <0>         0.3861
     16 O2          8.1569   10.0670    0.3773 O.2       1 <0>        -0.3419
     17 N4          5.9624   10.1542    0.3117 N.am      1 <0>        -0.3204
     18 C12         4.7658    9.5350    0.2219 C.2       1 <0>         0.3869
     19 O3          3.7270   10.1689    0.2390 O.2       1 <0>        -0.3699
     20 C13         6.0112   11.6134    0.4324 C.3       1 <0>         0.0405
     21 C14         6.7897   12.1970   -0.7485 C.3       1 <0>        -0.1784
     22 C15         6.8407   13.7209   -0.6225 C.3       1 <0>        -0.1537
     23 C16         7.5372   14.1015    0.6855 C.3       1 <0>        -0.1605
     24 C17         6.7588   13.5180    1.8663 C.3       1 <0>        -0.1537
     25 C18         6.7077   11.9940    1.7404 C.3       1 <0>        -0.1784
     26 O4          6.1457    6.0477   -0.0059 O.3       1 <0>        -0.2705
     27 H1         -2.0882    1.1599   -0.4944 H         1 <0>         0.1384
     28 H2          0.0552    0.0277   -0.9130 H         1 <0>         0.1427
     29 H3          2.1521    1.3133   -0.9086 H         1 <0>         0.1602
     30 H4         -0.0614    4.8833   -0.0430 H         1 <0>         0.1208
     31 H5         -2.1466    3.5789   -0.0509 H         1 <0>         0.1389
     32 H6          1.5667    5.7336   -0.0661 H         1 <0>         0.2582
     33 H7          4.4494    5.5837   -0.4008 H         1 <0>         0.3100
     34 H8          2.6275    7.8593    0.1200 H         1 <0>         0.1802
     35 H9          4.9968   12.0123    0.4315 H         1 <0>         0.1256
     36 H10         7.8041   11.7982   -0.7476 H         1 <0>         0.1230
     37 H11         6.2935   11.9259   -1.6804 H         1 <0>         0.0800
     38 H12         5.8263   14.1198   -0.6234 H         1 <0>         0.0769
     39 H13         7.3953   14.1367   -1.4638 H         1 <0>         0.0815
     40 H14         7.5736   15.1872    0.7752 H         1 <0>         0.0752
     41 H15         8.5516   13.7027    0.6864 H         1 <0>         0.0908
     42 H16         5.7444   13.9168    1.8655 H         1 <0>         0.0769
     43 H17         7.2550   13.7891    2.7982 H         1 <0>         0.0814
     44 H18         6.1532   11.5783    2.5816 H         1 <0>         0.0798
     45 H19         7.7222   11.5952    1.7412 H         1 <0>         0.1230
     46 H20         7.0507    5.7071   -0.0004 H         1 <0>         0.2787
@<TRIPOS>BOND
     1    1    6 ar
     2    1    2 ar
     3    1   27 1
     4    2    3 ar
     5    2   28 1
     6    3    4 ar
     7    3   29 1
     8    4    5 ar
     9    4    7 1
    10    5    6 ar
    11    5   30 1
    12    6   31 1
    13    7    8 2
    14    7    9 am
    15    9   10 1
    16    9   32 1
    17   10   11 1
    18   10   33 1
    19   11   12 2
    20   11   34 1
    21   12   18 1
    22   12   13 1
    23   13   14 2
    24   13   26 1
    25   14   15 1
    26   15   16 2
    27   15   17 am
    28   17   18 am
    29   17   20 1
    30   18   19 2
    31   20   25 1
    32   20   21 1
    33   20   35 1
    34   21   22 1
    35   21   36 1
    36   21   37 1
    37   22   23 1
    38   22   38 1
    39   22   39 1
    40   23   24 1
    41   23   40 1
    42   23   41 1
    43   24   25 1
    44   24   42 1
    45   24   43 1
    46   25   44 1
    47   25   45 1
    48   26   46 1
@<TRIPOS>MOLECULE
ZINC04001046
   40    41     0     0     0
SMALL
USER_CHARGES

@<TRIPOS>ATOM
      1 C1          0.1117    1.0671    0.0841 C.3       1 <0>        -0.1986
      2 C2         -0.7104    1.5676    1.2437 C.2       1 <0>         0.2003
      3 C3         -0.1295    1.7110    2.4947 C.2       1 <0>        -0.3972
      4 C4          1.3127    1.5195    2.6976 C.2       1 <0>         0.2836
      5 N1          1.8050    1.6764    3.9155 N.2       1 <0>        -0.3556
      6 C5          1.0342    1.9891    4.9536 C.2       1 <0>         0.3836
      7 O1          1.5604    2.1117    6.0456 O.2       1 <0>        -0.3402
      8 N2         -0.2906    2.1770    4.8633 N.am      1 <0>        -0.3160
      9 C6         -0.9327    2.0564    3.6815 C.2       1 <0>         0.3836
     10 O2         -2.1348    2.2277    3.5990 O.2       1 <0>        -0.3873
     11 C7         -1.0535    2.5192    6.0662 C.3       1 <0>         0.0141
     12 C8         -1.5290    1.2557    6.7358 C.2       1 <0>        -0.1902
     13 C9         -1.2415    1.0333    7.9944 C.2       1 <0>        -0.1961
     14 O3          2.1181    1.1967    1.6640 O.3       1 <0>        -0.2567
     15 N3         -2.0086    1.8754    1.0651 N.pl3     1 <0>        -0.1502
     16 N4         -2.6279    1.6138   -0.1641 N.am      1 <0>        -0.3061
     17 C10        -3.9507    1.8258   -0.3108 C.2       1 <0>         0.3509
     18 O4         -4.5892    2.3303    0.5922 O.2       1 <0>        -0.3362
     19 C11        -4.6253    1.4446   -1.5699 C.ar      1 <0>        -0.1275
     20 C12        -3.9180    0.7736   -2.5687 C.ar      1 <0>        -0.1069
     21 C13        -4.5546    0.4169   -3.7395 C.ar      1 <0>        -0.1333
     22 C14        -5.8884    0.7319   -3.9290 C.ar      1 <0>        -0.0965
     23 C15        -6.5941    1.4012   -2.9448 C.ar      1 <0>        -0.1341
     24 C16        -5.9707    1.7593   -1.7674 C.ar      1 <0>        -0.0578
     25 H1          0.5681    0.1129    0.3473 H         1 <0>         0.1291
     26 H2          0.8924    1.7917   -0.1473 H         1 <0>         0.1307
     27 H3         -0.5307    0.9347   -0.7864 H         1 <0>         0.0704
     28 H4         -0.4174    3.0773    6.7533 H         1 <0>         0.1213
     29 H5         -1.9132    3.1296    5.7898 H         1 <0>         0.1147
     30 H6         -2.1067    0.5335    6.1781 H         1 <0>         0.1294
     31 H7         -1.5823    0.1277    8.4743 H         1 <0>         0.1114
     32 H8         -0.6638    1.7555    8.5521 H         1 <0>         0.1184
     33 H9          3.0484    1.0943    1.9073 H         1 <0>         0.2631
     34 H10        -2.5153    2.2782    1.7875 H         1 <0>         0.3276
     35 H11        -2.1045    1.2802   -0.9095 H         1 <0>         0.2570
     36 H12        -2.8756    0.5311   -2.4239 H         1 <0>         0.1187
     37 H13        -4.0094   -0.1056   -4.5116 H         1 <0>         0.1369
     38 H14        -6.3809    0.4544   -4.8492 H         1 <0>         0.1374
     39 H15        -7.6351    1.6441   -3.0989 H         1 <0>         0.1423
     40 H16        -6.5224    2.2823   -1.0003 H         1 <0>         0.1615
@<TRIPOS>BOND
     1    1    2 1
     2    1   25 1
     3    1   26 1
     4    1   27 1
     5    2    3 2
     6    2   15 1
     7    3    9 1
     8    3    4 1
     9    4    5 2
    10    4   14 1
    11    5    6 1
    12    6    7 2
    13    6    8 am
    14    8    9 am
    15    8   11 1
    16    9   10 2
    17   11   12 1
    18   11   28 1
    19   11   29 1
    20   12   13 2
    21   12   30 1
    22   13   31 1
    23   13   32 1
    24   14   33 1
    25   15   16 1
    26   15   34 1
    27   16   17 am
    28   16   35 1
    29   17   18 2
    30   17   19 1
    31   19   24 ar
    32   19   20 ar
    33   20   21 ar
    34   20   36 1
    35   21   22 ar
    36   21   37 1
    37   22   23 ar
    38   22   38 1
    39   23   24 ar
    40   23   39 1
    41   24   40 1
@<TRIPOS>MOLECULE
ZINC04001083
   38    40     0     0     0
SMALL
USER_CHARGES

@<TRIPOS>ATOM
      1 C1          2.4238    7.8370    0.4592 C.3       1 <0>        -0.1692
      2 C2          1.1347    7.0646    0.3473 C.ar      1 <0>        -0.1027
      3 C3          0.5909    6.8094   -0.8994 C.ar      1 <0>        -0.1177
      4 C4         -0.5888    6.1036   -1.0096 C.ar      1 <0>        -0.1393
      5 C5         -1.2350    5.6454    0.1417 C.ar      1 <0>         0.0713
      6 C6         -0.6826    5.9115    1.3976 C.ar      1 <0>        -0.1417
      7 C7          0.5003    6.6144    1.4918 C.ar      1 <0>        -0.1170
      8 N1         -2.4041    4.9454    0.0403 N.2       1 <0>        -0.2830
      9 C8         -2.3841    3.6218    0.0275 C.2       1 <0>         0.2110
     10 N2         -3.5627    2.9050    0.0356 N.pl3     1 <0>        -0.2667
     11 H1         -4.4169    3.3645    0.0505 H         1 <0>         0.2600
     12 C9         -3.5124    1.5535    0.0222 C.2       1 <0>         0.2024
     13 N3         -2.3559    0.9418    0.0018 N.2       1 <0>        -0.3204
     14 C10        -1.2091    1.6372   -0.0061 C.2       1 <0>         0.2701
     15 N4         -1.2175    2.9600    0.0120 N.2       1 <0>        -0.3470
     16 N5         -0.0099    0.9670   -0.0276 N.pl3     1 <0>        -0.3517
     17 C11        -4.7885    0.7519    0.0313 C.3       1 <0>        -0.2478
     18 S1         -5.2776    0.4154    1.7411 S.3       1 <0>         0.3135
     19 C12        -6.7530   -0.5063    1.4617 C.ar      1 <0>        -0.0760
     20 N6         -7.1512   -0.7286    0.2170 N.ar      1 <0>        -0.2376
     21 C13        -8.2510   -1.4215   -0.0272 C.ar      1 <0>         0.0083
     22 C14        -8.9949   -1.9069    1.0370 C.ar      1 <0>        -0.2605
     23 C15        -8.5530   -1.6516    2.3259 C.ar      1 <0>         0.0092
     24 N7         -7.4415   -0.9566    2.5011 N.ar      1 <0>        -0.1866
     25 H2          2.2038    8.9017    0.5378 H         1 <0>         0.0802
     26 H3          2.9665    7.5116    1.3467 H         1 <0>         0.0756
     27 H4          3.0336    7.6565   -0.4261 H         1 <0>         0.0754
     28 H5          1.0914    7.1642   -1.7883 H         1 <0>         0.1230
     29 H6         -1.0124    5.9058   -1.9832 H         1 <0>         0.1307
     30 H7         -1.1787    5.5644    2.2918 H         1 <0>         0.1302
     31 H8          0.9305    6.8173    2.4614 H         1 <0>         0.1232
     32 H9          0.0036   -0.0029   -0.0370 H         1 <0>         0.2400
     33 H10         0.8232    1.4637   -0.0375 H         1 <0>         0.2504
     34 H11        -5.5761    1.3170   -0.4674 H         1 <0>         0.1340
     35 H12        -4.6295   -0.1902   -0.4933 H         1 <0>         0.1616
     36 H13        -8.5681   -1.6031   -1.0435 H         1 <0>         0.1704
     37 H14        -9.8990   -2.4722    0.8657 H         1 <0>         0.1503
     38 H15        -9.1095   -2.0161    3.1767 H         1 <0>         0.1739
@<TRIPOS>BOND
     1    1    2 1
     2    1   25 1
     3    1   26 1
     4    1   27 1
     5    2    7 ar
     6    2    3 ar
     7    3    4 ar
     8    3   28 1
     9    4    5 ar
    10    4   29 1
    11    5    6 ar
    12    5    8 1
    13    6    7 ar
    14    6   30 1
    15    7   31 1
    16    8    9 2
    17    9   15 1
    18    9   10 1
    19   10   11 1
    20   10   12 1
    21   12   13 2
    22   12   17 1
    23   13   14 1
    24   14   15 2
    25   14   16 1
    26   16   32 1
    27   16   33 1
    28   17   18 1
    29   17   34 1
    30   17   35 1
    31   18   19 1
    32   19   24 ar
    33   19   20 ar
    34   20   21 ar
    35   21   22 ar
    36   21   36 1
    37   22   23 ar
    38   22   37 1
    39   23   24 ar
    40   23   38 1
@<TRIPOS>MOLECULE
ZINC04001106
   46    48     0     0     0
SMALL
USER_CHARGES

@<TRIPOS>ATOM
      1 C1          0.7083   -0.2492    1.6359 C.3       1 <0>        -0.2002
      2 C2          0.0191   -1.3300    0.8004 C.3       1 <0>        -0.1678
      3 C3         -0.6895   -0.6886   -0.3647 C.2       1 <0>         0.2717
      4 C4         -0.0073   -0.4679   -1.5589 C.2       1 <0>        -0.3733
      5 C5          1.3858   -0.7151   -1.6710 C.2       1 <0>         0.3102
      6 N1          1.9811   -0.4867   -2.8309 N.2       1 <0>        -0.3801
      7 C6          1.3166   -0.0359   -3.8854 C.2       1 <0>         0.3236
      8 N2          0.0219    0.2205   -3.8700 N.2       1 <0>        -0.4207
      9 C7         -0.7021    0.0328   -2.7591 C.2       1 <0>         0.3594
     10 O1         -1.9013    0.2642   -2.7422 O.2       1 <0>        -0.3494
     11 O2          1.9990    0.1720   -5.0339 O.3       1 <0>        -0.2300
     12 O3          2.0910   -1.1744   -0.6138 O.3       1 <0>        -0.2344
     13 N3         -1.9775   -0.3301   -0.2518 N.pl3     1 <0>        -0.2379
     14 C8         -2.9489   -1.2928    0.0673 C.2       1 <0>        -0.1486
     15 C9         -4.2635   -1.0631    0.2949 C.2       1 <0>         0.0292
     16 N4         -4.8735   -2.2556    0.5729 N.pl3     1 <0>        -0.1923
     17 N5         -3.9231   -3.2817    0.5225 N.am      1 <0>        -0.1650
     18 C10        -2.7306   -2.7335    0.2100 C.2       1 <0>         0.3460
     19 O4         -1.6741   -3.3239    0.0748 O.2       1 <0>        -0.3592
     20 C11        -4.1680   -4.6394    0.7508 C.ar      1 <0>         0.0690
     21 C12        -4.8919   -5.0380    1.8671 C.ar      1 <0>        -0.1459
     22 C13        -5.1373   -6.3793    2.0863 C.ar      1 <0>        -0.1183
     23 C14        -4.6527   -7.3259    1.2023 C.ar      1 <0>        -0.1277
     24 C15        -3.9267   -6.9327    0.0929 C.ar      1 <0>        -0.1131
     25 C16        -3.6830   -5.5926   -0.1354 C.ar      1 <0>        -0.1086
     26 C17        -6.2962   -2.4309    0.8749 C.3       1 <0>        -0.0325
     27 C18        -4.9417    0.2819    0.2495 C.3       1 <0>        -0.1556
     28 H1          1.4324    0.2813    1.0176 H         1 <0>         0.0833
     29 H2         -0.0374    0.4541    2.0066 H         1 <0>         0.0684
     30 H3          1.2208   -0.7131    2.4786 H         1 <0>         0.0856
     31 H4         -0.7051   -1.8605    1.4187 H         1 <0>         0.1147
     32 H5          0.7648   -2.0333    0.4298 H         1 <0>         0.1395
     33 H6          1.4534    0.5006   -5.7616 H         1 <0>         0.2639
     34 H7          3.0310   -1.3091   -0.7965 H         1 <0>         0.2530
     35 H8         -2.2378    0.5939   -0.3906 H         1 <0>         0.2636
     36 H9         -5.2666   -4.2995    2.5604 H         1 <0>         0.1348
     37 H10        -5.7046   -6.6895    2.9514 H         1 <0>         0.1347
     38 H11        -4.8418   -8.3745    1.3786 H         1 <0>         0.1345
     39 H12        -3.5502   -7.6745   -0.5959 H         1 <0>         0.1405
     40 H13        -3.1157   -5.2863   -1.0018 H         1 <0>         0.1585
     41 H14        -6.8130   -1.4785    0.7558 H         1 <0>         0.1043
     42 H15        -6.7249   -3.1647    0.1924 H         1 <0>         0.0946
     43 H16        -6.4095   -2.7797    1.9013 H         1 <0>         0.0824
     44 H17        -4.2087    1.0503    0.0041 H         1 <0>         0.1047
     45 H18        -5.7231    0.2693   -0.5103 H         1 <0>         0.1008
     46 H19        -5.3839    0.4988    1.2219 H         1 <0>         0.0894
@<TRIPOS>BOND
     1    1    2 1
     2    1   28 1
     3    1   29 1
     4    1   30 1
     5    2    3 1
     6    2   31 1
     7    2   32 1
     8    3    4 2
     9    3   13 1
    10    4    9 1
    11    4    5 1
    12    5    6 2
    13    5   12 1
    14    6    7 1
    15    7    8 2
    16    7   11 1
    17    8    9 1
    18    9   10 2
    19   11   33 1
    20   12   34 1
    21   13   14 1
    22   13   35 1
    23   14   18 1
    24   14   15 2
    25   15   16 1
    26   15   27 1
    27   16   17 1
    28   16   26 1
    29   17   18 am
    30   17   20 1
    31   18   19 2
    32   20   25 ar
    33   20   21 ar
    34   21   22 ar
    35   21   36 1
    36   22   23 ar
    37   22   37 1
    38   23   24 ar
    39   23   38 1
    40   24   25 ar
    41   24   39 1
    42   25   40 1
    43   26   41 1
    44   26   42 1
    45   26   43 1
    46   27   44 1
    47   27   45 1
    48   27   46 1
@<TRIPOS>MOLECULE
ZINC04001225
   41    42     0     0     0
SMALL
USER_CHARGES

@<TRIPOS>ATOM
      1 C1         -4.0880   -5.9301    0.8949 C.3       1 <0>        -0.0661
      2 O1         -5.1955   -5.0345    0.7793 O.3       1 <0>        -0.1897
      3 C2         -4.9087   -3.7188    0.6032 C.ar      1 <0>         0.0975
      4 C3         -3.5863   -3.3001    0.5436 C.ar      1 <0>        -0.2024
      5 C4         -3.2901   -1.9670    0.3603 C.ar      1 <0>        -0.1027
      6 C5         -4.3215   -1.0316    0.2445 C.ar      1 <0>        -0.1375
      7 C6         -5.6526   -1.4529    0.3045 C.ar      1 <0>        -0.1282
      8 C7         -5.9427   -2.7916    0.4832 C.ar      1 <0>         0.0617
      9 O2         -7.2370   -3.2049    0.5424 O.3       1 <0>        -0.1957
     10 C8         -8.2453   -2.2007    0.4126 C.3       1 <0>        -0.0679
     11 C9         -4.0060    0.3973    0.0533 C.2       1 <0>         0.3399
     12 O3         -4.9048    1.2097   -0.0524 O.2       1 <0>        -0.3327
     13 N1         -2.7217    0.8020   -0.0044 N.am      1 <0>        -0.3468
     14 C10        -2.4205    2.1677   -0.0826 C.2       1 <0>        -0.0358
     15 C11        -1.7058    2.6470   -1.1352 C.2       1 <0>        -0.0193
     16 C12        -1.3763    1.7921   -2.2157 C.2       1 <0>        -0.2497
     17 C13        -0.7379    2.0973   -3.4107 C.2       1 <0>        -0.1424
     18 C14        -0.5327    1.0864   -4.3158 C.2       1 <0>        -0.1752
     19 C15        -0.9568   -0.1721   -4.0177 C.2       1 <0>        -0.3072
     20 S1         -1.6804    0.0424   -2.4001 S.3       1 <0>         0.3344
     21 C16        -2.8755    3.0793    0.9692 C.2       1 <0>         0.3584
     22 O4         -2.6983    4.2783    0.8543 O.2       1 <0>        -0.3571
     23 N2         -3.4905    2.5909    2.0646 N.am      1 <0>        -0.3141
     24 N3         -4.0043    3.4460    2.9977 N.3       1 <0>        -0.2075
     25 H1         -4.4558   -6.9470    1.0315 H         1 <0>         0.1139
     26 H2         -3.4846   -5.8806   -0.0115 H         1 <0>         0.0681
     27 H3         -3.4788   -5.6458    1.7529 H         1 <0>         0.0672
     28 H4         -2.7881   -4.0215    0.6371 H         1 <0>         0.1439
     29 H5         -2.2606   -1.6446    0.3098 H         1 <0>         0.1275
     30 H6         -6.4526   -0.7335    0.2110 H         1 <0>         0.1693
     31 H7         -9.2299   -2.6639    0.4774 H         1 <0>         0.1123
     32 H8         -8.1346   -1.4690    1.2128 H         1 <0>         0.0707
     33 H9         -8.1406   -1.7032   -0.5516 H         1 <0>         0.0730
     34 H10        -2.0059    0.1474    0.0084 H         1 <0>         0.2390
     35 H11        -1.3892    3.6795   -1.1476 H         1 <0>         0.1808
     36 H12        -0.4115    3.1048   -3.6225 H         1 <0>         0.1495
     37 H13        -0.0391    1.2873   -5.2552 H         1 <0>         0.1448
     38 H14        -0.8764   -1.0718   -4.6097 H         1 <0>         0.1871
     39 H15        -3.5683    1.6323    2.1902 H         1 <0>         0.2257
     40 H16        -4.4321    2.9378    3.7572 H         1 <0>         0.1550
     41 H17        -3.2950    4.0772    3.3392 H         1 <0>         0.1584
@<TRIPOS>BOND
     1    1    2 1
     2    1   25 1
     3    1   26 1
     4    1   27 1
     5    2    3 1
     6    3    8 ar
     7    3    4 ar
     8    4    5 ar
     9    4   28 1
    10    5    6 ar
    11    5   29 1
    12    6    7 ar
    13    6   11 1
    14    7    8 ar
    15    7   30 1
    16    8    9 1
    17    9   10 1
    18   10   31 1
    19   10   32 1
    20   10   33 1
    21   11   12 2
    22   11   13 am
    23   13   14 1
    24   13   34 1
    25   14   15 2
    26   14   21 1
    27   15   16 1
    28   15   35 1
    29   16   20 1
    30   16   17 2
    31   17   18 1
    32   17   36 1
    33   18   19 2
    34   18   37 1
    35   19   20 1
    36   19   38 1
    37   21   22 2
    38   21   23 am
    39   23   24 1
    40   23   39 1
    41   24   40 1
    42   24   41 1
@<TRIPOS>MOLECULE
ZINC04001228
   39    41     0     0     0
SMALL
USER_CHARGES

@<TRIPOS>ATOM
      1 C1         -1.3334    2.1130   -0.0032 C.3       1 <0>        -0.1701
      2 C2         -0.0184    1.3770   -0.0115 C.ar      1 <0>        -0.0970
      3 C3          0.5942    1.0482    1.1850 C.ar      1 <0>        -0.1156
      4 C4          1.8005    0.3798    1.1852 C.ar      1 <0>        -0.1347
      5 C5          2.4040    0.0340   -0.0269 C.ar      1 <0>         0.0606
      6 C6          1.7794    0.3693   -1.2312 C.ar      1 <0>        -0.1385
      7 C7          0.5734    1.0383   -1.2157 C.ar      1 <0>        -0.1160
      8 N1          3.5988   -0.6292   -0.0345 N.2       1 <0>        -0.2654
      9 C8          4.7301    0.0475   -0.1415 C.2       1 <0>         0.2017
     10 N2          5.9339   -0.6169   -0.2602 N.pl3     1 <0>        -0.2949
     11 H1          5.9645   -1.5864   -0.2658 H         1 <0>         0.2516
     12 C9          7.0806    0.1153   -0.3690 C.2       1 <0>         0.3210
     13 N3          7.0153    1.4376   -0.3586 N.2       1 <0>        -0.3628
     14 C10         5.8492    2.0615   -0.2437 C.2       1 <0>         0.1652
     15 N4          4.7224    1.3906   -0.1418 N.2       1 <0>        -0.2853
     16 C11         5.8151    3.5681   -0.2358 C.3       1 <0>        -0.1972
     17 S1          5.6370    4.1764   -1.9312 S.3       1 <0>         0.2603
     18 C12         5.6257    5.9131   -1.6334 C.2       1 <0>        -0.2160
     19 N5          5.7254    6.5056   -0.4662 N.2       1 <0>        -0.1061
     20 N6          5.6810    7.7810   -0.6188 N.2       1 <0>        -0.0819
     21 C13         5.5514    8.0762   -1.8813 C.2       1 <0>        -0.1328
     22 N7          5.5175    6.8973   -2.5736 N.pl3     1 <0>        -0.1604
     23 C14         5.3882    6.7259   -4.0228 C.3       1 <0>        -0.0676
     24 N8          8.2875   -0.5120   -0.4874 N.pl3     1 <0>        -0.3717
     25 H2         -2.1523    1.3937    0.0044 H         1 <0>         0.0800
     26 H3         -1.3928    2.7407    0.8860 H         1 <0>         0.0781
     27 H4         -1.4061    2.7370   -0.8940 H         1 <0>         0.0767
     28 H5          0.1266    1.3160    2.1210 H         1 <0>         0.1256
     29 H6          2.2773    0.1235    2.1198 H         1 <0>         0.1318
     30 H7          2.2398    0.1050   -2.1717 H         1 <0>         0.1288
     31 H8          0.0896    1.2981   -2.1456 H         1 <0>         0.1240
     32 H9          4.9709    3.9093    0.3633 H         1 <0>         0.1538
     33 H10         6.7421    3.9502    0.1918 H         1 <0>         0.1442
     34 H11         5.4874    9.0683   -2.3033 H         1 <0>         0.2100
     35 H12         4.3330    6.6606   -4.2883 H         1 <0>         0.0975
     36 H13         5.8387    7.5784   -4.5311 H         1 <0>         0.0978
     37 H14         5.8967    5.8111   -4.3273 H         1 <0>         0.1064
     38 H15         8.3319   -1.4809   -0.4943 H         1 <0>         0.2356
     39 H16         9.1006    0.0114   -0.5645 H         1 <0>         0.2633
@<TRIPOS>BOND
     1    1    2 1
     2    1   25 1
     3    1   26 1
     4    1   27 1
     5    2    7 ar
     6    2    3 ar
     7    3    4 ar
     8    3   28 1
     9    4    5 ar
    10    4   29 1
    11    5    6 ar
    12    5    8 1
    13    6    7 ar
    14    6   30 1
    15    7   31 1
    16    8    9 2
    17    9   15 1
    18    9   10 1
    19   10   11 1
    20   10   12 1
    21   12   13 2
    22   12   24 1
    23   13   14 1
    24   14   15 2
    25   14   16 1
    26   16   17 1
    27   16   32 1
    28   16   33 1
    29   17   18 1
    30   18   22 1
    31   18   19 2
    32   19   20 1
    33   20   21 2
    34   21   22 1
    35   21   34 1
    36   22   23 1
    37   23   35 1
    38   23   36 1
    39   23   37 1
    40   24   38 1
    41   24   39 1
@<TRIPOS>MOLECULE
ZINC04001306
   42    44     0     0     0
SMALL
USER_CHARGES

@<TRIPOS>ATOM
      1 C1         -6.6920    6.9945    0.1022 C.3       1 <0>        -0.0649
      2 N1         -5.9524    8.2591    0.1003 N.am      1 <0>        -0.2377
      3 C2         -4.5886    8.2451    0.0860 C.2       1 <0>         0.0940
      4 C3         -3.9036    9.4707    0.0844 C.2       1 <0>        -0.1710
      5 C4         -4.6901   10.7019    0.0986 C.2       1 <0>         0.3360
      6 N2         -6.0097   10.6091    0.1123 N.am      1 <0>        -0.2784
      7 C5         -6.6236    9.4242    0.1129 C.2       1 <0>         0.4045
      8 O1         -7.8418    9.3970    0.1259 O.2       1 <0>        -0.3595
      9 O2         -4.0831   11.9087    0.0982 O.2       1 <0>        -0.3980
     10 N3         -2.5729    9.1853    0.0751 N.pl3     1 <0>        -0.1099
     11 C6         -2.4311    7.8503    0.0625 C.2       1 <0>         0.2443
     12 N4         -1.2551    7.1925    0.0482 N.2       1 <0>        -0.2836
     13 N5         -1.2376    5.9026    0.0424 N.2       1 <0>        -0.1183
     14 C7         -0.0692    5.2491    0.0281 C.2       1 <0>        -0.1228
     15 C8         -0.0501    3.8401    0.0218 C.ar      1 <0>        -0.0140
     16 C9         -1.2588    3.1124    0.0299 C.ar      1 <0>        -0.0777
     17 C10        -1.2271    1.7475    0.0174 C.ar      1 <0>        -0.1356
     18 C11        -0.0126    1.0758    0.0080 C.ar      1 <0>        -0.0818
     19 C12         1.1829    1.7801    0.0003 C.ar      1 <0>        -0.0631
     20 C13         1.1776    3.1457    0.0068 C.ar      1 <0>        -0.0733
     21 N6          2.4693    1.0482   -0.0154 N.pl3     1 <0>         0.4585
     22 O3          2.4776   -0.2688   -0.0221 O.2       1 <0>        -0.3408
     23 O4          3.6056    1.7139   -0.0227 O.3       1 <0>        -0.3400
     24 N7         -3.6494    7.2694    0.0723 N.pl3     1 <0>        -0.2139
     25 H1         -3.8229    6.3151    0.0696 H         1 <0>         0.2807
     26 C14        -1.4838   10.1652    0.0759 C.3       1 <0>         0.0359
     27 C15        -0.2822    9.5801    0.7723 C.2       1 <0>        -0.1814
     28 C16         0.8745    9.5387    0.1589 C.2       1 <0>        -0.1765
     29 H2         -6.8647    6.6762    1.1303 H         1 <0>         0.0968
     30 H3         -7.6489    7.1324   -0.4011 H         1 <0>         0.1316
     31 H4         -6.1125    6.2339   -0.4211 H         1 <0>         0.0863
     32 H5         -6.5589   11.4447    0.1224 H         1 <0>         0.2986
     33 H6          0.8586    5.8017    0.0215 H         1 <0>         0.1333
     34 H7         -2.2051    3.6328    0.0410 H         1 <0>         0.1479
     35 H8         -2.1510    1.1881    0.0191 H         1 <0>         0.1432
     36 H9          0.0021   -0.0041    0.0020 H         1 <0>         0.1645
     37 H10         2.1094    3.6917    0.0001 H         1 <0>         0.1700
     38 H11        -1.2213   10.4175   -0.9515 H         1 <0>         0.1072
     39 H12        -1.8052   11.0651    0.6003 H         1 <0>         0.1374
     40 H13        -0.3748    9.1951    1.7770 H         1 <0>         0.1376
     41 H14         0.9671    9.9238   -0.8459 H         1 <0>         0.1119
     42 H15         1.7357    9.1194    0.6579 H         1 <0>         0.1216
@<TRIPOS>BOND
     1    1   29 1
     2    1   30 1
     3    1   31 1
     4    1    2 1
     5    2    3 1
     6    2    7 am
     7    3   24 1
     8    3    4 2
     9    4    5 1
    10    4   10 1
    11    5    6 am
    12    5    9 2
    13    6    7 am
    14    6   32 1
    15    7    8 2
    16   10   11 1
    17   10   26 1
    18   11   12 2
    19   11   24 1
    20   12   13 1
    21   13   14 2
    22   14   15 1
    23   14   33 1
    24   15   20 ar
    25   15   16 ar
    26   16   17 ar
    27   16   34 1
    28   17   18 ar
    29   17   35 1
    30   18   19 ar
    31   18   36 1
    32   19   20 ar
    33   19   21 1
    34   20   37 1
    35   21   22 2
    36   21   23 1
    37   24   25 1
    38   26   27 1
    39   26   38 1
    40   26   39 1
    41   27   28 2
    42   27   40 1
    43   28   41 1
    44   28   42 1
@<TRIPOS>MOLECULE
ZINC04003092
   41    43     0     0     0
SMALL
USER_CHARGES

@<TRIPOS>ATOM
      1 C1         -3.6415    6.7289   -1.0224 C.3       1 <0>        -0.2061
      2 C2         -2.8433    6.8590    0.2764 C.3       1 <0>         0.0850
      3 C3         -3.7529    6.5499    1.4671 C.3       1 <0>        -0.2237
      4 C4         -1.6920    5.8868    0.2580 C.2       1 <0>         0.3024
      5 O1         -0.5522    6.2947    0.3384 O.2       1 <0>        -0.2952
      6 N1         -1.9285    4.5642    0.1524 N.am      1 <0>        -0.3323
      7 N2         -0.8582    3.6603    0.1353 N.2       1 <0>        -0.0009
      8 C5         -1.0860    2.3866    0.0335 C.2       1 <0>        -0.0667
      9 C6          0.0401    1.4357    0.0156 C.2       1 <0>        -0.2011
     10 C7         -0.0337    0.0854   -0.1896 C.2       1 <0>        -0.0602
     11 N3          1.2152   -0.4137   -0.1343 N.pl3     1 <0>        -0.1837
     12 H1          1.4574   -1.3770   -0.2503 H         1 <0>         0.2838
     13 N4          2.1215    0.6225    0.1104 N.2       1 <0>        -0.0666
     14 C8          1.4571    1.7534    0.2076 C.2       1 <0>         0.0051
     15 C9          2.0332    3.0955    0.4628 C.ar      1 <0>        -0.0365
     16 C10         3.1830    3.5026   -0.2122 C.ar      1 <0>        -0.0745
     17 C11         3.7130    4.7540    0.0252 C.ar      1 <0>        -0.1796
     18 C12         3.1099    5.6020    0.9400 C.ar      1 <0>         0.1149
     19 C13         1.9700    5.1996    1.6171 C.ar      1 <0>        -0.1522
     20 C14         1.4301    3.9519    1.3826 C.ar      1 <0>        -0.0393
     21 F1          3.6351    6.8248    1.1729 F         1 <0>        -0.1067
     22 N5         -2.3273    8.2248    0.3977 N.pl3     1 <0>        -0.1565
     23 C15        -1.8294    8.8026    1.5046 C.2       1 <0>        -0.0197
     24 N6         -1.4759   10.0250    1.2005 N.2       1 <0>        -0.2361
     25 C16        -1.7315   10.2628   -0.0853 C.2       1 <0>        -0.0901
     26 N7         -2.2487    9.1884   -0.6210 N.2       1 <0>        -0.1155
     27 H2         -4.0254    5.7128   -1.1127 H         1 <0>         0.0739
     28 H3         -4.4742    7.4321   -1.0091 H         1 <0>         0.1025
     29 H4         -2.9934    6.9491   -1.8707 H         1 <0>         0.1171
     30 H5         -3.1843    6.6426    2.3924 H         1 <0>         0.0909
     31 H6         -4.5856    7.2531    1.4804 H         1 <0>         0.1032
     32 H7         -4.1369    5.5338    1.3769 H         1 <0>         0.0876
     33 H8         -2.8398    4.2380    0.0881 H         1 <0>         0.2039
     34 H9         -2.1006    2.0235   -0.0380 H         1 <0>         0.1113
     35 H10        -0.9363   -0.4814   -0.3647 H         1 <0>         0.1716
     36 H11         3.6561    2.8407   -0.9224 H         1 <0>         0.1412
     37 H12         4.6016    5.0717   -0.5000 H         1 <0>         0.1429
     38 H13         1.5036    5.8636    2.3299 H         1 <0>         0.1463
     39 H14         0.5417    3.6389    1.9111 H         1 <0>         0.1389
     40 H15        -1.7379    8.3389    2.4757 H         1 <0>         0.2055
     41 H16        -1.5387   11.1912   -0.6023 H         1 <0>         0.2152
@<TRIPOS>BOND
     1    1    2 1
     2    1   27 1
     3    1   28 1
     4    1   29 1
     5    2    3 1
     6    2    4 1
     7    2   22 1
     8    3   30 1
     9    3   31 1
    10    3   32 1
    11    4    5 2
    12    4    6 am
    13    6    7 1
    14    6   33 1
    15    7    8 2
    16    8    9 1
    17    8   34 1
    18    9   14 1
    19    9   10 2
    20   10   11 1
    21   10   35 1
    22   11   12 1
    23   11   13 1
    24   13   14 2
    25   14   15 1
    26   15   20 ar
    27   15   16 ar
    28   16   17 ar
    29   16   36 1
    30   17   18 ar
    31   17   37 1
    32   18   19 ar
    33   18   21 1
    34   19   20 ar
    35   19   38 1
    36   20   39 1
    37   22   26 1
    38   22   23 1
    39   23   24 2
    40   23   40 1
    41   24   25 1
    42   25   26 2
    43   25   41 1
@<TRIPOS>MOLECULE
ZINC04003092
   41    43     0     0     0
SMALL
USER_CHARGES

@<TRIPOS>ATOM
      1 C1         -3.6415    6.7289   -1.0224 C.3       1 <0>        -0.2061
      2 C2         -2.8433    6.8590    0.2764 C.3       1 <0>         0.0844
      3 C3         -3.7529    6.5499    1.4671 C.3       1 <0>        -0.2236
      4 C4         -1.6920    5.8868    0.2580 C.2       1 <0>         0.3038
      5 O1         -0.5522    6.2947    0.3384 O.2       1 <0>        -0.3034
      6 N1         -1.9285    4.5642    0.1524 N.am      1 <0>        -0.3308
      7 N2         -0.8582    3.6603    0.1353 N.2       1 <0>        -0.0222
      8 C5         -1.0860    2.3866    0.0335 C.2       1 <0>        -0.0553
      9 C6          0.0401    1.4357    0.0156 C.2       1 <0>        -0.2175
     10 C7         -0.0343    0.0845   -0.1835 C.2       1 <0>        -0.0892
     11 N3          1.2142   -0.4151   -0.1247 N.2       1 <0>        -0.1208
     12 H1          3.1117    0.5194    0.2046 H         1 <0>         0.2880
     13 N4          2.1209    0.6217    0.1162 N.pl3     1 <0>        -0.1169
     14 C8          1.4571    1.7534    0.2076 C.2       1 <0>         0.0439
     15 C9          2.0332    3.0955    0.4628 C.ar      1 <0>        -0.0724
     16 C10         3.1830    3.5026   -0.2122 C.ar      1 <0>        -0.0918
     17 C11         3.7130    4.7540    0.0252 C.ar      1 <0>        -0.1750
     18 C12         3.1099    5.6020    0.9400 C.ar      1 <0>         0.1223
     19 C13         1.9700    5.1996    1.6171 C.ar      1 <0>        -0.1482
     20 C14         1.4301    3.9519    1.3826 C.ar      1 <0>        -0.0257
     21 F1          3.6351    6.8248    1.1729 F         1 <0>        -0.1018
     22 N5         -2.3273    8.2248    0.3977 N.pl3     1 <0>        -0.1558
     23 C15        -1.8294    8.8026    1.5046 C.2       1 <0>        -0.0205
     24 N6         -1.4759   10.0250    1.2005 N.2       1 <0>        -0.2369
     25 C16        -1.7315   10.2628   -0.0853 C.2       1 <0>        -0.0907
     26 N7         -2.2487    9.1884   -0.6210 N.2       1 <0>        -0.1149
     27 H2         -4.0254    5.7128   -1.1127 H         1 <0>         0.0749
     28 H3         -4.4742    7.4321   -1.0091 H         1 <0>         0.1025
     29 H4         -2.9934    6.9491   -1.8707 H         1 <0>         0.1169
     30 H5         -3.1843    6.6426    2.3924 H         1 <0>         0.0902
     31 H6         -4.5856    7.2531    1.4804 H         1 <0>         0.1033
     32 H7         -4.1369    5.5338    1.3769 H         1 <0>         0.0885
     33 H8         -2.8398    4.2380    0.0881 H         1 <0>         0.2046
     34 H9         -2.1006    2.0235   -0.0380 H         1 <0>         0.1161
     35 H10        -0.9370   -0.4824   -0.3576 H         1 <0>         0.1865
     36 H11         3.6561    2.8407   -0.9224 H         1 <0>         0.1300
     37 H12         4.6016    5.0717   -0.5000 H         1 <0>         0.1457
     38 H13         1.5036    5.8636    2.3299 H         1 <0>         0.1514
     39 H14         0.5417    3.6389    1.9111 H         1 <0>         0.1464
     40 H15        -1.7379    8.3389    2.4757 H         1 <0>         0.2050
     41 H16        -1.5387   11.1912   -0.6023 H         1 <0>         0.2152
@<TRIPOS>BOND
     1    1    2 1
     2    1   27 1
     3    1   28 1
     4    1   29 1
     5    2    3 1
     6    2    4 1
     7    2   22 1
     8    3   30 1
     9    3   31 1
    10    3   32 1
    11    4    5 2
    12    4    6 am
    13    6    7 1
    14    6   33 1
    15    7    8 2
    16    8    9 1
    17    8   34 1
    18    9   10 1
    19    9   14 2
    20   10   35 1
    21   10   11 2
    22   11   13 1
    23   12   13 1
    24   13   14 1
    25   14   15 1
    26   15   20 ar
    27   15   16 ar
    28   16   17 ar
    29   16   36 1
    30   17   18 ar
    31   17   37 1
    32   18   19 ar
    33   18   21 1
    34   19   20 ar
    35   19   38 1
    36   20   39 1
    37   22   26 1
    38   22   23 1
    39   23   24 2
    40   23   40 1
    41   24   25 1
    42   25   26 2
    43   25   41 1
@<TRIPOS>MOLECULE
ZINC04013676
   41    43     0     0     0
SMALL
USER_CHARGES

@<TRIPOS>ATOM
      1 C1          0.5284    8.8498   -4.0720 C.3       1 <0>        -0.0647
      2 O1          1.6519    8.0021   -4.3197 O.3       1 <0>        -0.1959
      3 C2          2.0972    7.2476   -3.2796 C.ar      1 <0>         0.0793
      4 C3          1.4667    7.3217   -2.0480 C.ar      1 <0>        -0.1892
      5 C4          1.9209    6.5543   -0.9916 C.ar      1 <0>        -0.0934
      6 C5          3.0038    5.7117   -1.1608 C.ar      1 <0>        -0.0846
      7 C6          3.6407    5.6369   -2.3855 C.ar      1 <0>        -0.1818
      8 C7          3.1875    6.3997   -3.4498 C.ar      1 <0>         0.0700
      9 O2          3.8097    6.3235   -4.6566 O.3       1 <0>        -0.1947
     10 C8          4.9219    5.4320   -4.7580 C.3       1 <0>        -0.0634
     11 C9          3.4949    4.8774   -0.0059 C.3       1 <0>        -0.0418
     12 C10         2.7817    3.5498   -0.0061 C.2       1 <0>         0.0472
     13 N1          3.3951    2.3357   -0.0165 N.pl3     1 <0>        -0.2182
     14 H1          4.3812    2.1699   -0.0250 H         1 <0>         0.2561
     15 C11         2.4039    1.3748   -0.0131 C.ar      1 <0>        -0.0812
     16 C12         2.4031   -0.0135   -0.0205 C.ar      1 <0>        -0.0080
     17 C13         1.2051   -0.6956   -0.0132 C.ar      1 <0>        -0.7525
     18 C14         0.0021   -0.0041    0.0020 C.ar      1 <0>        -0.0603
     19 C15        -0.0164    1.3618    0.0095 C.ar      1 <0>        -0.0912
     20 C16         1.1855    2.0745    0.0019 C.ar      1 <0>         0.0061
     21 N2          1.4896    3.3979    0.0057 N.2       1 <0>        -0.1767
     22 S1          1.2015   -2.4576   -0.0226 S.o2      1 <0>         2.7650
     23 O3          2.4512   -2.8692    0.5141 O.2       1 <0>        -0.9224
     24 O4         -0.0394   -2.8642    0.5379 O.2       1 <0>        -0.9145
     25 N3          1.1854   -2.9387   -1.6071 N.pl3     1 <0>        -0.9316
     26 H2         -0.3234    8.2434   -3.7643 H         1 <0>         0.0683
     27 H3          0.7751    9.5579   -3.2810 H         1 <0>         0.0659
     28 H4          0.2768    9.3946   -4.9819 H         1 <0>         0.1100
     29 H5          0.6205    7.9792   -1.9132 H         1 <0>         0.1431
     30 H6          1.4286    6.6130   -0.0322 H         1 <0>         0.1414
     31 H7          4.4890    4.9809   -2.5139 H         1 <0>         0.1349
     32 H8          5.3248    5.4674   -5.7701 H         1 <0>         0.1104
     33 H9          5.6936    5.7319   -4.0490 H         1 <0>         0.0632
     34 H10         4.5956    4.4169   -4.5320 H         1 <0>         0.0643
     35 H11         3.2930    5.3981    0.9302 H         1 <0>         0.1213
     36 H12         4.5678    4.7135   -0.1063 H         1 <0>         0.0924
     37 H13         3.3365   -0.5565   -0.0323 H         1 <0>         0.1483
     38 H14        -0.9290   -0.5513    0.0083 H         1 <0>         0.1556
     39 H15        -0.9585    1.8900    0.0169 H         1 <0>         0.1498
     40 H16         1.1799   -2.2758   -2.3152 H         1 <0>         0.2304
     41 H17         1.1814   -3.8835   -1.8271 H         1 <0>         0.2431
@<TRIPOS>BOND
     1    1    2 1
     2    1   26 1
     3    1   27 1
     4    1   28 1
     5    2    3 1
     6    3    8 ar
     7    3    4 ar
     8    4    5 ar
     9    4   29 1
    10    5    6 ar
    11    5   30 1
    12    6    7 ar
    13    6   11 1
    14    7    8 ar
    15    7   31 1
    16    8    9 1
    17    9   10 1
    18   10   32 1
    19   10   33 1
    20   10   34 1
    21   11   12 1
    22   11   35 1
    23   11   36 1
    24   12   21 2
    25   12   13 1
    26   13   14 1
    27   13   15 1
    28   15   20 ar
    29   15   16 ar
    30   16   17 ar
    31   16   37 1
    32   17   18 ar
    33   17   22 1
    34   18   19 ar
    35   18   38 1
    36   19   20 ar
    37   19   39 1
    38   20   21 1
    39   22   23 2
    40   22   24 2
    41   22   25 1
    42   25   40 1
    43   25   41 1
@<TRIPOS>MOLECULE
ZINC04013676
   41    43     0     0     0
SMALL
USER_CHARGES

@<TRIPOS>ATOM
      1 C1          0.5284    8.8498   -4.0720 C.3       1 <0>        -0.0649
      2 O1          1.6519    8.0021   -4.3197 O.3       1 <0>        -0.1929
      3 C2          2.0972    7.2476   -3.2796 C.ar      1 <0>         0.0776
      4 C3          1.4667    7.3217   -2.0480 C.ar      1 <0>        -0.1877
      5 C4          1.9209    6.5543   -0.9916 C.ar      1 <0>        -0.1372
      6 C5          3.0038    5.7117   -1.1608 C.ar      1 <0>        -0.0969
      7 C6          3.6407    5.6369   -2.3855 C.ar      1 <0>        -0.1716
      8 C7          3.1875    6.3997   -3.4498 C.ar      1 <0>         0.0775
      9 O2          3.8097    6.3235   -4.6566 O.3       1 <0>        -0.1939
     10 C8          4.9219    5.4320   -4.7580 C.3       1 <0>        -0.0664
     11 C9          3.4949    4.8774   -0.0059 C.3       1 <0>        -0.0470
     12 C10         2.7817    3.5498   -0.0061 C.2       1 <0>         0.0046
     13 N1          3.3951    2.3357   -0.0165 N.2       1 <0>        -0.1686
     14 H1          0.8220    4.1424    0.0135 H         1 <0>         0.2569
     15 C11         2.4039    1.3748   -0.0131 C.ar      1 <0>        -0.0700
     16 C12         2.4031   -0.0135   -0.0238 C.ar      1 <0>         0.0442
     17 C13         1.2051   -0.6956   -0.0188 C.ar      1 <0>        -0.7732
     18 C14         0.0020   -0.0041   -0.0049 C.ar      1 <0>        -0.0406
     19 C15        -0.0164    1.3618    0.0037 C.ar      1 <0>        -0.1372
     20 C16         1.1855    2.0745   -0.0016 C.ar      1 <0>        -0.0338
     21 N2          1.4896    3.3979    0.0036 N.pl3     1 <0>        -0.1554
     22 S1          1.2015   -2.4576   -0.0295 S.o2      1 <0>         2.7655
     23 O3          2.4503   -2.8696    0.5087 O.2       1 <0>        -0.9170
     24 O4         -0.0403   -2.8646    0.5288 O.2       1 <0>        -0.9187
     25 N3          1.1877   -2.9375   -1.6144 N.pl3     1 <0>        -0.9316
     26 H2         -0.3234    8.2434   -3.7643 H         1 <0>         0.0652
     27 H3          0.7751    9.5579   -3.2810 H         1 <0>         0.0671
     28 H4          0.2768    9.3946   -4.9819 H         1 <0>         0.1128
     29 H5          0.6205    7.9792   -1.9132 H         1 <0>         0.1423
     30 H6          1.4286    6.6130   -0.0322 H         1 <0>         0.1258
     31 H7          4.4890    4.9809   -2.5139 H         1 <0>         0.1511
     32 H8          5.3248    5.4674   -5.7701 H         1 <0>         0.1125
     33 H9          5.6936    5.7319   -4.0490 H         1 <0>         0.0680
     34 H10         4.5956    4.4169   -4.5320 H         1 <0>         0.0701
     35 H11         3.2930    5.3981    0.9302 H         1 <0>         0.1070
     36 H12         4.5678    4.7135   -0.1063 H         1 <0>         0.1312
     37 H13         3.3365   -0.5565   -0.0346 H         1 <0>         0.1653
     38 H14        -0.9291   -0.5513   -0.0004 H         1 <0>         0.1549
     39 H15        -0.9586    1.8900    0.0100 H         1 <0>         0.1322
     40 H16         1.1833   -2.2740   -2.3220 H         1 <0>         0.2301
     41 H17         1.1840   -3.8821   -1.8351 H         1 <0>         0.2428
@<TRIPOS>BOND
     1    1    2 1
     2    1   26 1
     3    1   27 1
     4    1   28 1
     5    2    3 1
     6    3    8 ar
     7    3    4 ar
     8    4    5 ar
     9    4   29 1
    10    5    6 ar
    11    5   30 1
    12    6    7 ar
    13    6   11 1
    14    7    8 ar
    15    7   31 1
    16    8    9 1
    17    9   10 1
    18   10   32 1
    19   10   33 1
    20   10   34 1
    21   11   12 1
    22   11   35 1
    23   11   36 1
    24   12   13 2
    25   12   21 1
    26   13   15 1
    27   14   21 1
    28   15   20 ar
    29   15   16 ar
    30   16   17 ar
    31   16   37 1
    32   17   18 ar
    33   17   22 1
    34   18   19 ar
    35   18   38 1
    36   19   20 ar
    37   19   39 1
    38   20   21 1
    39   22   23 2
    40   22   24 2
    41   22   25 1
    42   25   40 1
    43   25   41 1
@<TRIPOS>MOLECULE
ZINC04013676
   42    44     0     0     0
SMALL
USER_CHARGES

@<TRIPOS>ATOM
      1 C1          0.5284    8.8498   -4.0720 C.3       1 <0>        -0.0704
      2 O1          1.6519    8.0021   -4.3197 O.3       1 <0>        -0.1772
      3 C2          2.0972    7.2476   -3.2796 C.ar      1 <0>         0.1116
      4 C3          1.4667    7.3217   -2.0480 C.ar      1 <0>        -0.1852
      5 C4          1.9209    6.5543   -0.9916 C.ar      1 <0>        -0.1252
      6 C5          3.0038    5.7117   -1.1608 C.ar      1 <0>        -0.1483
      7 C6          3.6407    5.6369   -2.3855 C.ar      1 <0>        -0.1779
      8 C7          3.1875    6.3997   -3.4498 C.ar      1 <0>         0.0904
      9 O2          3.8097    6.3235   -4.6566 O.3       1 <0>        -0.1765
     10 C8          4.9219    5.4320   -4.7580 C.3       1 <0>        -0.0670
     11 C9          3.4949    4.8774   -0.0059 C.3       1 <0>        -0.0742
     12 C10         2.7817    3.5498   -0.0061 C.cat     1 <0>         0.1589
     13 N1          3.3951    2.3357   -0.0165 N.pl3     1 <0>        -0.1500
     14 H1          4.3812    2.1699   -0.0250 H         1 <0>         0.3100
     15 C11         2.4039    1.3748   -0.0131 C.ar      1 <0>        -0.0454
     16 C12         2.4031   -0.0135   -0.0205 C.ar      1 <0>         0.0111
     17 C13         1.2051   -0.6956   -0.0132 C.ar      1 <0>        -0.7168
     18 C14         0.0021   -0.0041    0.0020 C.ar      1 <0>        -0.0015
     19 C15        -0.0164    1.3618    0.0095 C.ar      1 <0>        -0.1094
     20 C16         1.1855    2.0745    0.0019 C.ar      1 <0>        -0.0057
     21 S1          1.2015   -2.4576   -0.0226 S.o2      1 <0>         2.7540
     22 O3          2.4512   -2.8692    0.5141 O.2       1 <0>        -0.8900
     23 O4         -0.0394   -2.8642    0.5379 O.2       1 <0>        -0.8805
     24 N2          1.1854   -2.9387   -1.6071 N.pl3     1 <0>        -0.9262
     25 H2         -0.3234    8.2434   -3.7643 H         1 <0>         0.0683
     26 H3          0.7751    9.5579   -3.2810 H         1 <0>         0.0759
     27 H4          0.2768    9.3946   -4.9819 H         1 <0>         0.1314
     28 H5          0.6205    7.9792   -1.9132 H         1 <0>         0.1596
     29 H6          1.4286    6.6130   -0.0322 H         1 <0>         0.1268
     30 H7          4.4890    4.9809   -2.5139 H         1 <0>         0.1422
     31 H8          5.3248    5.4674   -5.7701 H         1 <0>         0.1316
     32 H9          5.6936    5.7319   -4.0490 H         1 <0>         0.0706
     33 H10         4.5956    4.4169   -4.5320 H         1 <0>         0.0587
     34 H11         3.2930    5.3981    0.9302 H         1 <0>         0.1480
     35 H12         4.5678    4.7135   -0.1063 H         1 <0>         0.1359
     36 H13         3.3365   -0.5565   -0.0323 H         1 <0>         0.1821
     37 H14        -0.9290   -0.5513    0.0083 H         1 <0>         0.1898
     38 H15        -0.9585    1.8900    0.0169 H         1 <0>         0.1671
     39 H16         1.1799   -2.2758   -2.3152 H         1 <0>         0.2305
     40 H17         1.1814   -3.8835   -1.8271 H         1 <0>         0.2624
     41 N3          1.4889    3.3987    0.0057 N.pl3     1 <0>        -0.1101
     42 H18         0.8035    4.1632    0.0163 H         1 <0>         0.3208
@<TRIPOS>BOND
     1    1    2 1
     2    1   25 1
     3    1   26 1
     4    1   27 1
     5    2    3 1
     6    3    8 ar
     7    3    4 ar
     8    4    5 ar
     9    4   28 1
    10    5    6 ar
    11    5   29 1
    12    6    7 ar
    13    6   11 1
    14    7    8 ar
    15    7   30 1
    16    8    9 1
    17    9   10 1
    18   10   31 1
    19   10   32 1
    20   10   33 1
    21   11   12 1
    22   11   34 1
    23   11   35 1
    24   12   13 1
    25   12   41 2
    26   13   14 1
    27   13   15 1
    28   15   20 ar
    29   15   16 ar
    30   16   17 ar
    31   16   36 1
    32   17   18 ar
    33   17   21 1
    34   18   19 ar
    35   18   37 1
    36   19   20 ar
    37   19   38 1
    38   20   41 1
    39   21   22 2
    40   21   23 2
    41   21   24 1
    42   24   39 1
    43   24   40 1
    44   41   42 1
@<TRIPOS>MOLECULE
ZINC04016575
   42    44     0     0     0
SMALL
USER_CHARGES

@<TRIPOS>ATOM
      1 C1          1.2132   -6.2516   -1.0606 C.3       1 <0>        -0.1740
      2 C2          1.0841   -4.7510   -1.1117 C.ar      1 <0>        -0.0772
      3 C3          2.2168   -3.9619   -1.1824 C.ar      1 <0>        -0.1266
      4 C4          2.0984   -2.5854   -1.2297 C.ar      1 <0>        -0.1210
      5 C5          0.8473   -1.9981   -1.2057 C.ar      1 <0>        -0.0758
      6 C6         -0.2852   -2.7870   -1.1292 C.ar      1 <0>        -0.1168
      7 C7         -0.1670   -4.1637   -1.0873 C.ar      1 <0>        -0.1249
      8 C8          0.7182   -0.4975   -1.2568 C.3       1 <0>        -0.0757
      9 H1          1.7103   -0.0491   -1.3098 H         1 <0>         0.0912
     10 C9         -0.0892   -0.0968   -2.4931 C.3       1 <0>        -0.2072
     11 C10         0.0021   -0.0041    0.0020 C.3       1 <0>        -0.1432
     12 C11        -0.0187    1.5258    0.0104 C.3       1 <0>        -0.1816
     13 C12        -0.7240    2.0118    1.2503 C.2       1 <0>         0.2542
     14 O1         -1.1665    1.2132    2.0485 O.2       1 <0>        -0.2762
     15 N1         -0.8631    3.3339    1.4720 N.am      1 <0>        -0.2384
     16 C13        -1.5132    3.7818    2.6148 C.ar      1 <0>         0.1794
     17 C14        -1.6620    5.1556    2.8647 C.ar      1 <0>        -0.1763
     18 C15        -2.3333    5.5482    4.0361 C.ar      1 <0>         0.0625
     19 N2         -2.3415    6.9202    4.0251 N.pl3     1 <0>        -0.2088
     20 H2         -2.7413    7.5151    4.7224 H         1 <0>         0.2669
     21 C16        -1.7048    7.3236    2.8895 C.2       1 <0>        -0.0283
     22 N3         -1.3097    6.2871    2.2087 N.2       1 <0>        -0.1526
     23 N4         -2.7902    4.6136    4.8622 N.ar      1 <0>        -0.2383
     24 C17        -2.6229    3.3369    4.5886 C.ar      1 <0>         0.0557
     25 N5         -2.0037    2.9207    3.4991 N.ar      1 <0>        -0.2164
     26 H3          1.2818   -6.5753   -0.0221 H         1 <0>         0.0860
     27 H4          0.3394   -6.7075   -1.5263 H         1 <0>         0.0807
     28 H5          2.1116   -6.5574   -1.5967 H         1 <0>         0.0801
     29 H6          3.1943   -4.4207   -1.2011 H         1 <0>         0.1287
     30 H7          2.9834   -1.9689   -1.2849 H         1 <0>         0.1275
     31 H8         -1.2626   -2.3280   -1.1061 H         1 <0>         0.1325
     32 H9         -1.0520   -4.7802   -1.0316 H         1 <0>         0.1300
     33 H10         0.4210   -0.4484   -3.3899 H         1 <0>         0.0800
     34 H11        -1.0813   -0.5452   -2.4401 H         1 <0>         0.0796
     35 H12        -0.1826    0.9885   -2.5300 H         1 <0>         0.0718
     36 H13         0.5293   -0.3651    0.8851 H         1 <0>         0.1019
     37 H14        -1.0205   -0.3814    0.0098 H         1 <0>         0.1028
     38 H15         1.0039    1.9031    0.0027 H         1 <0>         0.0976
     39 H16        -0.5459    1.8868   -0.8726 H         1 <0>         0.1172
     40 H17         0.0401    3.7598    1.5252 H         1 <0>         0.2163
     41 H18        -1.5505    8.3519    2.5978 H         1 <0>         0.2109
     42 H19        -3.0067    2.6023    5.2811 H         1 <0>         0.2057
@<TRIPOS>BOND
     1    1    2 1
     2    1   26 1
     3    1   27 1
     4    1   28 1
     5    2    7 ar
     6    2    3 ar
     7    3    4 ar
     8    3   29 1
     9    4    5 ar
    10    4   30 1
    11    5    6 ar
    12    5    8 1
    13    6    7 ar
    14    6   31 1
    15    7   32 1
    16    8    9 1
    17    8   10 1
    18    8   11 1
    19   10   33 1
    20   10   34 1
    21   10   35 1
    22   11   12 1
    23   11   36 1
    24   11   37 1
    25   12   13 1
    26   12   38 1
    27   12   39 1
    28   13   14 2
    29   13   15 am
    30   15   16 1
    31   15   40 1
    32   16   25 ar
    33   16   17 ar
    34   17   22 1
    35   17   18 ar
    36   18   19 1
    37   18   23 ar
    38   19   20 1
    39   19   21 1
    40   21   22 2
    41   21   41 1
    42   23   24 ar
    43   24   25 ar
    44   24   42 1
@<TRIPOS>MOLECULE
ZINC04036978
   45    47     0     0     0
SMALL
USER_CHARGES

@<TRIPOS>ATOM
      1 C1         -3.2813    3.8346   -1.8159 C.3       1 <0>        -0.2333
      2 C2         -2.4726    2.7608   -1.0853 C.3       1 <0>        -0.0012
      3 N1         -2.6560    2.9106    0.3605 N.pl3     1 <0>        -0.2818
      4 C3         -3.7454    2.2032    1.0378 C.3       1 <0>        -0.0014
      5 C4         -3.2522    0.8309    1.5010 C.3       1 <0>        -0.2338
      6 C5         -1.8024    3.7181    1.0843 C.ar      1 <0>         0.2994
      7 N2         -1.9720    3.8586    2.3952 N.ar      1 <0>        -0.3801
      8 C6         -1.1463    4.6326    3.0921 C.ar      1 <0>         0.2933
      9 N3         -0.1578    5.2741    2.4757 N.ar      1 <0>        -0.3638
     10 C7          0.0074    5.1376    1.1657 C.ar      1 <0>         0.2841
     11 N4         -0.8135    4.3603    0.4697 N.ar      1 <0>        -0.3545
     12 O1          1.0137    5.7909    0.5394 O.3       1 <0>        -0.0757
     13 C8          1.7599    6.6612    1.2679 C.2       1 <0>         0.0498
     14 C9          2.8804    7.2798    0.6832 C.2       1 <0>        -0.1008
     15 C10         3.6272    8.1516    1.4127 C.2       1 <0>        -0.1654
     16 C11         3.2640    8.4214    2.7478 C.2       1 <0>         0.2883
     17 O2          3.9222    9.2006    3.4187 O.2       1 <0>        -0.3658
     18 N5          2.1846    7.8122    3.2786 N.am      1 <0>        -0.2650
     19 H1          1.9239    7.9967    4.2262 H         1 <0>         0.2860
     20 N6          1.4279    6.9224    2.5074 N.2       1 <0>        -0.0068
     21 N7         -1.3179    4.7745    4.4555 N.pl3     1 <0>        -0.2595
     22 C12        -2.2576    3.9867    5.1277 C.ar      1 <0>         0.0750
     23 C13        -2.5038    2.6861    4.7072 C.ar      1 <0>        -0.1259
     24 C14        -3.4280    1.9087    5.3771 C.ar      1 <0>        -0.1157
     25 C15        -4.1167    2.4279    6.4581 C.ar      1 <0>        -0.1459
     26 C16        -3.8784    3.7246    6.8755 C.ar      1 <0>        -0.1098
     27 C17        -2.9510    4.5052    6.2137 C.ar      1 <0>        -0.1610
     28 H2         -4.3375    3.7240   -1.5703 H         1 <0>         0.0731
     29 H3         -2.9377    4.8216   -1.5064 H         1 <0>         0.0935
     30 H4         -3.1449    3.7231   -2.8916 H         1 <0>         0.0809
     31 H5         -2.8163    1.7737   -1.3947 H         1 <0>         0.0854
     32 H6         -1.4164    2.8713   -1.3309 H         1 <0>         0.1175
     33 H7         -4.0730    2.7820    1.9014 H         1 <0>         0.1192
     34 H8         -4.5799    2.0756    0.3483 H         1 <0>         0.0876
     35 H9         -4.0628    0.3045    2.0050 H         1 <0>         0.0806
     36 H10        -2.9247    0.2520    0.6374 H         1 <0>         0.0749
     37 H11        -2.4177    0.9585    2.1906 H         1 <0>         0.0875
     38 H12         3.1466    7.0629   -0.3408 H         1 <0>         0.1576
     39 H13         4.4890    8.6322    0.9737 H         1 <0>         0.1759
     40 H14        -0.7864    5.4205    4.9465 H         1 <0>         0.2593
     41 H15        -1.9695    2.2815    3.8603 H         1 <0>         0.1562
     42 H16        -3.6167    0.8958    5.0534 H         1 <0>         0.1300
     43 H17        -4.8424    1.8195    6.9772 H         1 <0>         0.1291
     44 H18        -4.4179    4.1271    7.7200 H         1 <0>         0.1316
     45 H19        -2.7654    5.5178    6.5402 H         1 <0>         0.1313
@<TRIPOS>BOND
     1    1    2 1
     2    1   28 1
     3    1   29 1
     4    1   30 1
     5    2    3 1
     6    2   31 1
     7    2   32 1
     8    3    4 1
     9    3    6 1
    10    4    5 1
    11    4   33 1
    12    4   34 1
    13    5   35 1
    14    5   36 1
    15    5   37 1
    16    6   11 ar
    17    6    7 ar
    18    7    8 ar
    19    8    9 ar
    20    8   21 1
    21    9   10 ar
    22   10   11 ar
    23   10   12 1
    24   12   13 1
    25   13   20 2
    26   13   14 1
    27   14   15 2
    28   14   38 1
    29   15   16 1
    30   15   39 1
    31   16   17 2
    32   16   18 am
    33   18   19 1
    34   18   20 1
    35   21   22 1
    36   21   40 1
    37   22   27 ar
    38   22   23 ar
    39   23   24 ar
    40   23   41 1
    41   24   25 ar
    42   24   42 1
    43   25   26 ar
    44   25   43 1
    45   26   27 ar
    46   26   44 1
    47   27   45 1
@<TRIPOS>MOLECULE
ZINC04036978
   45    47     0     0     0
SMALL
USER_CHARGES

@<TRIPOS>ATOM
      1 C1         -3.2813    3.8346   -1.8159 C.3       1 <0>        -0.2333
      2 C2         -2.4726    2.7608   -1.0853 C.3       1 <0>         0.0000
      3 N1         -2.6560    2.9106    0.3605 N.pl3     1 <0>        -0.2850
      4 C3         -3.7454    2.2032    1.0378 C.3       1 <0>        -0.0003
      5 C4         -3.2522    0.8309    1.5010 C.3       1 <0>        -0.2337
      6 C5         -1.8024    3.7181    1.0843 C.ar      1 <0>         0.2978
      7 N2         -1.9720    3.8586    2.3952 N.ar      1 <0>        -0.3836
      8 C6         -1.1463    4.6326    3.0921 C.ar      1 <0>         0.2927
      9 N3         -0.1578    5.2741    2.4757 N.ar      1 <0>        -0.3485
     10 C7          0.0074    5.1376    1.1657 C.ar      1 <0>         0.2847
     11 N4         -0.8135    4.3603    0.4697 N.ar      1 <0>        -0.3595
     12 O1          1.0137    5.7909    0.5394 O.3       1 <0>        -0.0889
     13 C8          1.7599    6.6612    1.2679 C.ar      1 <0>         0.0243
     14 C9          2.8804    7.2798    0.6832 C.ar      1 <0>        -0.0783
     15 C10         3.6272    8.1516    1.4127 C.ar      1 <0>        -0.2558
     16 C11         3.2708    8.4126    2.7514 C.ar      1 <0>         0.1087
     17 O2          3.9317    9.1881    3.4238 O.3       1 <0>        -0.1733
     18 N5          2.1913    7.8035    3.2821 N.ar      1 <0>        -0.1108
     19 H1          4.6884    9.5437    2.8751 H         1 <0>         0.2559
     20 N6          1.4311    6.9182    2.5091 N.ar      1 <0>        -0.0028
     21 N7         -1.3179    4.7745    4.4555 N.pl3     1 <0>        -0.2576
     22 C12        -2.2576    3.9867    5.1277 C.ar      1 <0>         0.0785
     23 C13        -2.5038    2.6861    4.7072 C.ar      1 <0>        -0.1277
     24 C14        -3.4280    1.9087    5.3771 C.ar      1 <0>        -0.1169
     25 C15        -4.1167    2.4279    6.4581 C.ar      1 <0>        -0.1489
     26 C16        -3.8784    3.7246    6.8755 C.ar      1 <0>        -0.1108
     27 C17        -2.9510    4.5052    6.2137 C.ar      1 <0>        -0.1610
     28 H2         -4.3375    3.7240   -1.5703 H         1 <0>         0.0724
     29 H3         -2.9377    4.8216   -1.5064 H         1 <0>         0.0940
     30 H4         -3.1449    3.7231   -2.8916 H         1 <0>         0.0789
     31 H5         -2.8163    1.7737   -1.3947 H         1 <0>         0.0834
     32 H6         -1.4164    2.8713   -1.3309 H         1 <0>         0.1169
     33 H7         -4.0730    2.7820    1.9014 H         1 <0>         0.1196
     34 H8         -4.5799    2.0756    0.3483 H         1 <0>         0.0855
     35 H9         -4.0628    0.3045    2.0050 H         1 <0>         0.0793
     36 H10        -2.9247    0.2520    0.6374 H         1 <0>         0.0735
     37 H11        -2.4177    0.9585    2.1906 H         1 <0>         0.0883
     38 H12         3.1464    7.0632   -0.3409 H         1 <0>         0.1560
     39 H13         4.4892    8.6320    0.9738 H         1 <0>         0.1452
     40 H14        -0.7864    5.4205    4.9465 H         1 <0>         0.2668
     41 H15        -1.9695    2.2815    3.8603 H         1 <0>         0.1559
     42 H16        -3.6167    0.8958    5.0534 H         1 <0>         0.1282
     43 H17        -4.8424    1.8195    6.9772 H         1 <0>         0.1271
     44 H18        -4.4179    4.1271    7.7200 H         1 <0>         0.1301
     45 H19        -2.7654    5.5178    6.5402 H         1 <0>         0.1333
@<TRIPOS>BOND
     1    1    2 1
     2    1   28 1
     3    1   29 1
     4    1   30 1
     5    2    3 1
     6    2   31 1
     7    2   32 1
     8    3    4 1
     9    3    6 1
    10    4    5 1
    11    4   33 1
    12    4   34 1
    13    5   35 1
    14    5   36 1
    15    5   37 1
    16    6   11 ar
    17    6    7 ar
    18    7    8 ar
    19    8    9 ar
    20    8   21 1
    21    9   10 ar
    22   10   11 ar
    23   10   12 1
    24   12   13 1
    25   13   14 ar
    26   13   20 ar
    27   14   38 1
    28   14   15 ar
    29   15   39 1
    30   15   16 ar
    31   16   18 ar
    32   16   17 1
    33   17   19 1
    34   18   20 ar
    35   21   22 1
    36   21   40 1
    37   22   27 ar
    38   22   23 ar
    39   23   24 ar
    40   23   41 1
    41   24   25 ar
    42   24   42 1
    43   25   26 ar
    44   25   43 1
    45   26   27 ar
    46   26   44 1
    47   27   45 1
@<TRIPOS>MOLECULE
ZINC04038098
   39    41     0     0     0
SMALL
USER_CHARGES

@<TRIPOS>ATOM
      1 C1         -7.2871    6.6861   -9.3689 C.3       1 <0>        -0.1728
      2 C2         -7.4574    6.7861   -7.8749 C.ar      1 <0>        -0.0867
      3 C3         -8.5604    7.4351   -7.3487 C.ar      1 <0>        -0.1124
      4 C4         -8.7249    7.5322   -5.9800 C.ar      1 <0>        -0.1498
      5 C5         -7.7836    6.9788   -5.1268 C.ar      1 <0>         0.0777
      6 C6         -6.6685    6.3227   -5.6555 C.ar      1 <0>        -0.0197
      7 C7         -6.5097    6.2351   -7.0363 C.ar      1 <0>        -0.0936
      8 C8         -5.6550    5.7274   -4.7495 C.2       1 <0>        -0.0795
      9 C9         -5.6870    5.7414   -3.3429 C.2       1 <0>        -0.1394
     10 C10        -4.5433    5.0753   -2.9456 C.2       1 <0>        -0.1750
     11 N1         -3.8995    4.6953   -4.0896 N.pl3     1 <0>        -0.1083
     12 H1         -3.0381    4.1885   -4.1227 H         1 <0>         0.2803
     13 N2         -4.5654    5.0859   -5.1158 N.2       1 <0>        -0.0729
     14 C11        -4.1077    4.8200   -1.5630 C.2       1 <0>         0.3751
     15 O1         -4.7804    5.2164   -0.6304 O.2       1 <0>        -0.3456
     16 N3         -2.9634    4.1470   -1.3304 N.am      1 <0>        -0.3931
     17 C12        -2.5298    3.8929    0.0457 C.3       1 <0>         0.0364
     18 C13        -1.2309    3.1289    0.0302 C.ar      1 <0>        -0.0785
     19 C14        -1.2232    1.7424    0.0174 C.ar      1 <0>        -0.1753
     20 C15        -0.0126    1.0758    0.0080 C.ar      1 <0>        -0.0456
     21 N4          1.1248    1.7431    0.0007 N.ar      1 <0>        -0.1566
     22 C16         1.1555    3.0614    0.0075 C.ar      1 <0>        -0.0458
     23 C17        -0.0153    3.7957    0.0221 C.ar      1 <0>        -0.1758
     24 O2         -7.9443    7.0732   -3.7811 O.3       1 <0>        -0.2903
     25 H2         -6.7249    7.5476   -9.7290 H         1 <0>         0.0858
     26 H3         -6.7462    5.7716   -9.6125 H         1 <0>         0.0840
     27 H4         -8.2670    6.6665   -9.8458 H         1 <0>         0.0819
     28 H5         -9.2963    7.8673   -8.0106 H         1 <0>         0.1333
     29 H6         -9.5876    8.0402   -5.5750 H         1 <0>         0.1417
     30 H7         -5.6479    5.7329   -7.4505 H         1 <0>         0.1493
     31 H8         -6.4432    6.1803   -2.7090 H         1 <0>         0.1956
     32 H9         -2.4269    3.8309   -2.0741 H         1 <0>         0.2172
     33 H10        -3.2894    3.3076    0.5638 H         1 <0>         0.1070
     34 H11        -2.3869    4.8418    0.5627 H         1 <0>         0.1059
     35 H12        -2.1514    1.1904    0.0184 H         1 <0>         0.1443
     36 H13         0.0021   -0.0041    0.0020 H         1 <0>         0.1642
     37 H14         2.1065    3.5732    0.0011 H         1 <0>         0.1639
     38 H15         0.0163    4.8752    0.0276 H         1 <0>         0.1436
     39 H16        -7.5428    7.8619   -3.3914 H         1 <0>         0.2296
@<TRIPOS>BOND
     1    1    2 1
     2    1   25 1
     3    1   26 1
     4    1   27 1
     5    2    7 ar
     6    2    3 ar
     7    3    4 ar
     8    3   28 1
     9    4    5 ar
    10    4   29 1
    11    5    6 ar
    12    5   24 1
    13    6    7 ar
    14    6    8 1
    15    7   30 1
    16    8   13 2
    17    8    9 1
    18    9   10 2
    19    9   31 1
    20   10   11 1
    21   10   14 1
    22   11   12 1
    23   11   13 1
    24   14   15 2
    25   14   16 am
    26   16   17 1
    27   16   32 1
    28   17   18 1
    29   17   33 1
    30   17   34 1
    31   18   23 ar
    32   18   19 ar
    33   19   20 ar
    34   19   35 1
    35   20   21 ar
    36   20   36 1
    37   21   22 ar
    38   22   23 ar
    39   22   37 1
    40   23   38 1
    41   24   39 1
@<TRIPOS>MOLECULE
ZINC04038098
   39    41     0     0     0
SMALL
USER_CHARGES

@<TRIPOS>ATOM
      1 C1         -7.2931    6.6757   -9.3689 C.3       1 <0>        -0.1748
      2 C2         -7.4628    6.7768   -7.8749 C.ar      1 <0>        -0.0744
      3 C3         -8.5666    7.4245   -7.3487 C.ar      1 <0>        -0.1120
      4 C4         -8.7305    7.5226   -5.9800 C.ar      1 <0>        -0.1413
      5 C5         -7.7878    6.9715   -5.1268 C.ar      1 <0>         0.0879
      6 C6         -6.6720    6.3168   -5.6555 C.ar      1 <0>        -0.0359
      7 C7         -6.5137    6.2281   -7.0363 C.ar      1 <0>        -0.1226
      8 C8         -5.6570    5.7239   -4.7495 C.2       1 <0>        -0.0946
      9 C9         -5.6883    5.7392   -3.3429 C.2       1 <0>        -0.1554
     10 C10        -4.5433    5.0753   -2.9456 C.2       1 <0>        -0.1594
     11 N1         -3.8952    4.7026   -4.0896 N.2       1 <0>        -0.1161
     12 H1         -4.2886    4.9324   -6.0644 H         1 <0>         0.2837
     13 N2         -4.5628    5.0904   -5.1158 N.pl3     1 <0>        -0.0494
     14 C11        -4.1077    4.8200   -1.5630 C.2       1 <0>         0.3919
     15 O1         -4.7804    5.2164   -0.6304 O.2       1 <0>        -0.3656
     16 N3         -2.9634    4.1470   -1.3304 N.am      1 <0>        -0.3793
     17 C12        -2.5298    3.8929    0.0457 C.3       1 <0>         0.0339
     18 C13        -1.2309    3.1289    0.0302 C.ar      1 <0>        -0.0724
     19 C14        -1.2232    1.7424    0.0174 C.ar      1 <0>        -0.1734
     20 C15        -0.0126    1.0758    0.0080 C.ar      1 <0>        -0.0475
     21 N4          1.1248    1.7431    0.0007 N.ar      1 <0>        -0.1598
     22 C16         1.1555    3.0614    0.0075 C.ar      1 <0>        -0.0477
     23 C17        -0.0153    3.7957    0.0221 C.ar      1 <0>        -0.1740
     24 O2         -7.9480    7.0669   -3.7811 O.3       1 <0>        -0.2854
     25 H2         -6.7325    7.5378   -9.7301 H         1 <0>         0.0884
     26 H3         -6.7508    5.7619   -9.6120 H         1 <0>         0.0820
     27 H4         -8.2732    6.6541   -9.8453 H         1 <0>         0.0865
     28 H5         -9.3035    7.8549   -8.0106 H         1 <0>         0.1372
     29 H6         -9.5938    8.0296   -5.5751 H         1 <0>         0.1459
     30 H7         -5.6513    5.7270   -7.4505 H         1 <0>         0.1218
     31 H8         -6.4455    6.1764   -2.7090 H         1 <0>         0.1938
     32 H9         -2.4269    3.8309   -2.0741 H         1 <0>         0.2392
     33 H10        -3.2894    3.3076    0.5638 H         1 <0>         0.1029
     34 H11        -2.3869    4.8418    0.5627 H         1 <0>         0.1018
     35 H12        -2.1514    1.1904    0.0184 H         1 <0>         0.1437
     36 H13         0.0021   -0.0041    0.0020 H         1 <0>         0.1618
     37 H14         2.1065    3.5732    0.0011 H         1 <0>         0.1615
     38 H15         0.0163    4.8752    0.0276 H         1 <0>         0.1429
     39 H16        -7.5476    7.8566   -3.3924 H         1 <0>         0.2343
@<TRIPOS>BOND
     1    1    2 1
     2    1   25 1
     3    1   26 1
     4    1   27 1
     5    2    7 ar
     6    2    3 ar
     7    3    4 ar
     8    3   28 1
     9    4    5 ar
    10    4   29 1
    11    5    6 ar
    12    5   24 1
    13    6    7 ar
    14    6    8 1
    15    7   30 1
    16    8    9 2
    17    8   13 1
    18    9   31 1
    19    9   10 1
    20   10   14 1
    21   10   11 2
    22   11   13 1
    23   12   13 1
    24   14   15 2
    25   14   16 am
    26   16   17 1
    27   16   32 1
    28   17   18 1
    29   17   33 1
    30   17   34 1
    31   18   23 ar
    32   18   19 ar
    33   19   20 ar
    34   19   35 1
    35   20   21 ar
    36   20   36 1
    37   21   22 ar
    38   22   23 ar
    39   22   37 1
    40   23   38 1
    41   24   39 1
@<TRIPOS>MOLECULE
ZINC04047444
   45    47     0     0     0
SMALL
USER_CHARGES

@<TRIPOS>ATOM
      1 C1          2.0301   -4.2752    0.5215 C.3       1 <0>        -0.2113
      2 C2          2.2185   -2.7609    0.6320 C.3       1 <0>        -0.0170
      3 O1          1.1263   -2.0971   -0.0072 O.3       1 <0>        -0.2057
      4 C3          1.1402   -0.7375    0.0011 C.ar      1 <0>         0.0799
      5 C4          2.1845   -0.0584    0.6119 C.ar      1 <0>        -0.1620
      6 C5          2.1992    1.3222    0.6207 C.ar      1 <0>        -0.1009
      7 C6          1.1688    2.0310    0.0172 C.ar      1 <0>         0.0949
      8 C7          0.1241    1.3509   -0.5939 C.ar      1 <0>        -0.1141
      9 C8          0.1105   -0.0301   -0.6015 C.ar      1 <0>        -0.0927
     10 N1         -0.9717    2.1056   -1.2423 N.pl3     1 <0>         0.5579
     11 O2         -1.8374    1.5121   -1.8601 O.2       1 <0>        -0.3389
     12 O3         -1.0076    3.3202   -1.1581 O.3       1 <0>        -0.3812
     13 N2          1.1830    3.4320    0.0257 N.am      1 <0>        -0.3241
     14 C9          2.3533    4.0946   -0.0640 C.2       1 <0>         0.3172
     15 O4          3.3842    3.4826   -0.2480 O.2       1 <0>        -0.3694
     16 C10         2.3809    5.5959    0.0644 C.3       1 <0>        -0.2062
     17 C11         3.8212    6.0931   -0.0739 C.3       1 <0>         0.0529
     18 H1          4.4543    5.5838    0.6526 H         1 <0>         0.1447
     19 C12         3.8674    7.5801    0.1712 C.2       1 <0>         0.2959
     20 O5          4.0618    7.9974    1.2934 O.2       1 <0>        -0.3542
     21 N3          3.6957    8.4492   -0.8414 N.am      1 <0>        -0.3019
     22 C13         3.6036    8.0019   -2.1644 C.ar      1 <0>         0.0074
     23 C14         3.2375    8.8702   -3.1803 C.ar      1 <0>        -0.1362
     24 C15         3.1470    8.4102   -4.4812 C.ar      1 <0>        -0.1392
     25 C16         3.4259    7.0881   -4.7758 C.ar      1 <0>        -0.1148
     26 C17         3.8043    6.2167   -3.7700 C.ar      1 <0>        -0.1570
     27 C18         3.9010    6.6722   -2.4669 C.ar      1 <0>         0.0693
     28 N4          4.3095    5.8148   -1.4325 N.pl3     1 <0>        -0.3819
     29 H2          1.9960   -4.5614   -0.5297 H         1 <0>         0.0920
     30 H3          2.8632   -4.7815    1.0090 H         1 <0>         0.0907
     31 H4          1.0969   -4.5616    1.0064 H         1 <0>         0.0912
     32 H5          3.1518   -2.4745    0.1470 H         1 <0>         0.0773
     33 H6          2.2526   -2.4747    1.6832 H         1 <0>         0.0752
     34 H7          2.9860   -0.6098    1.0810 H         1 <0>         0.1508
     35 H8          3.0122    1.8507    1.0962 H         1 <0>         0.1747
     36 H9         -0.7020   -0.5593   -1.0772 H         1 <0>         0.1794
     37 H10         0.3507    3.9251    0.0962 H         1 <0>         0.2678
     38 H11         1.7667    6.0389   -0.7196 H         1 <0>         0.1267
     39 H12         1.9890    5.8844    1.0397 H         1 <0>         0.1220
     40 H13         3.6345    9.3985   -0.6520 H         1 <0>         0.2451
     41 H14         3.0235    9.9048   -2.9564 H         1 <0>         0.1336
     42 H15         2.8574    9.0870   -5.2714 H         1 <0>         0.1336
     43 H16         3.3477    6.7349   -5.7934 H         1 <0>         0.1339
     44 H17         4.0238    5.1848   -4.0011 H         1 <0>         0.1405
     45 H18         4.8965    5.0627   -1.6075 H         1 <0>         0.2541
@<TRIPOS>BOND
     1    1    2 1
     2    1   29 1
     3    1   30 1
     4    1   31 1
     5    2    3 1
     6    2   32 1
     7    2   33 1
     8    3    4 1
     9    4    9 ar
    10    4    5 ar
    11    5    6 ar
    12    5   34 1
    13    6    7 ar
    14    6   35 1
    15    7    8 ar
    16    7   13 1
    17    8    9 ar
    18    8   10 1
    19    9   36 1
    20   10   11 2
    21   10   12 1
    22   13   14 am
    23   13   37 1
    24   14   15 2
    25   14   16 1
    26   16   17 1
    27   16   38 1
    28   16   39 1
    29   17   18 1
    30   17   28 1
    31   17   19 1
    32   19   20 2
    33   19   21 am
    34   21   22 1
    35   21   40 1
    36   22   27 ar
    37   22   23 ar
    38   23   24 ar
    39   23   41 1
    40   24   25 ar
    41   24   42 1
    42   25   26 ar
    43   25   43 1
    44   26   27 ar
    45   26   44 1
    46   27   28 1
    47   28   45 1
@<TRIPOS>MOLECULE
ZINC04049838
   46    48     0     0     0
SMALL
USER_CHARGES

@<TRIPOS>ATOM
      1 C1          1.4492    0.5655    4.6417 C.ar      1 <0>        -0.1326
      2 C2          0.9988   -0.4320    3.7961 C.ar      1 <0>        -0.1137
      3 C3          0.2818   -0.1062    2.6619 C.ar      1 <0>        -0.1642
      4 C4          0.0216    1.2259    2.3653 C.ar      1 <0>         0.0133
      5 C5          0.4753    2.2251    3.2166 C.ar      1 <0>        -0.0761
      6 C6          1.1879    1.8919    4.3520 C.ar      1 <0>        -0.1068
      7 C7          0.1901    3.6710    2.9022 C.3       1 <0>         0.0455
      8 N1         -1.1790    3.9982    3.3079 N.pl3     1 <0>        -0.8697
      9 S1         -1.6502    5.5809    3.4315 S.o2      1 <0>         2.7895
     10 O1         -3.0191    5.5686    3.8126 O.2       1 <0>        -0.9119
     11 O2         -0.6524    6.2432    4.1963 O.2       1 <0>        -0.9094
     12 C8         -1.5846    6.2719    1.8119 C.2       1 <0>        -0.9464
     13 C9         -2.5516    6.3166    0.8631 C.2       1 <0>        -0.0342
     14 C10        -2.2740    6.9200   -0.3491 C.2       1 <0>        -0.2090
     15 C11        -1.0395    7.4398   -0.5571 C.2       1 <0>        -0.2819
     16 S2         -0.2248    7.0879    0.9920 S.3       1 <0>         0.4405
     17 N2         -0.6996    1.5592    1.2165 N.pl3     1 <0>        -0.2235
     18 C12        -0.0127    1.0858    0.0080 C.3       1 <0>        -0.0652
     19 C13        -0.7525    1.5926   -1.2322 C.3       1 <0>        -0.1557
     20 C14        -2.1941    1.0772   -1.2067 C.3       1 <0>        -0.1097
     21 C15        -2.8718    1.5436    0.0848 C.3       1 <0>        -0.1512
     22 C16        -2.0706    1.0383    1.2868 C.3       1 <0>        -0.0678
     23 C17        -2.9558    1.6290   -2.4134 C.3       1 <0>         0.0028
     24 O3         -4.2644    1.0563   -2.4532 O.3       1 <0>        -0.3556
     25 H1          2.0059    0.3077    5.5305 H         1 <0>         0.1334
     26 H2          1.2044   -1.4672    4.0255 H         1 <0>         0.1313
     27 H3         -0.0734   -0.8859    2.0043 H         1 <0>         0.1343
     28 H4          1.5410    2.6684    5.0144 H         1 <0>         0.1407
     29 H5          0.8912    4.3058    3.4441 H         1 <0>         0.0981
     30 H6          0.3015    3.8387    1.8309 H         1 <0>         0.0968
     31 H7         -1.8095    3.2877    3.5043 H         1 <0>         0.2486
     32 H8         -3.5254    5.8896    1.0525 H         1 <0>         0.1559
     33 H9         -3.0279    6.9724   -1.1206 H         1 <0>         0.1468
     34 H10        -0.6498    7.9373   -1.4329 H         1 <0>         0.1896
     35 H11         0.0021   -0.0041    0.0020 H         1 <0>         0.0592
     36 H12         1.0099    1.4629    0.0003 H         1 <0>         0.0984
     37 H13        -0.7556    2.6826   -1.2339 H         1 <0>         0.0954
     38 H14        -0.2515    1.2281   -2.1290 H         1 <0>         0.0837
     39 H15        -2.1922   -0.0122   -1.2441 H         1 <0>         0.1020
     40 H16        -2.9083    2.6328    0.1037 H         1 <0>         0.0916
     41 H17        -3.8852    1.1447    0.1285 H         1 <0>         0.1034
     42 H18        -2.5425    1.3807    2.2077 H         1 <0>         0.0952
     43 H19        -2.0460   -0.0514    1.2747 H         1 <0>         0.0603
     44 H20        -3.0358    2.7127   -2.3280 H         1 <0>         0.0601
     45 H21        -2.4201    1.3753   -3.3282 H         1 <0>         0.0578
     46 H22        -4.8050    1.3618   -3.1945 H         1 <0>         0.2101
@<TRIPOS>BOND
     1    1    6 ar
     2    1    2 ar
     3    1   25 1
     4    2    3 ar
     5    2   26 1
     6    3    4 ar
     7    3   27 1
     8    4    5 ar
     9    4   17 1
    10    5    6 ar
    11    5    7 1
    12    6   28 1
    13    7    8 1
    14    7   29 1
    15    7   30 1
    16    8    9 1
    17    8   31 1
    18    9   10 2
    19    9   11 2
    20    9   12 1
    21   12   16 1
    22   12   13 2
    23   13   14 1
    24   13   32 1
    25   14   15 2
    26   14   33 1
    27   15   16 1
    28   15   34 1
    29   17   22 1
    30   17   18 1
    31   18   19 1
    32   18   35 1
    33   18   36 1
    34   19   20 1
    35   19   37 1
    36   19   38 1
    37   20   21 1
    38   20   23 1
    39   20   39 1
    40   21   22 1
    41   21   40 1
    42   21   41 1
    43   22   42 1
    44   22   43 1
    45   23   24 1
    46   23   44 1
    47   23   45 1
    48   24   46 1
@<TRIPOS>MOLECULE
ZINC04061397
   42    44     0     0     0
SMALL
USER_CHARGES

@<TRIPOS>ATOM
      1 C1          1.5007    6.6066    4.9512 C.3       1 <0>        -0.2034
      2 C2          1.0892    6.8639    3.5002 C.3       1 <0>        -0.2628
      3 S1          0.5802    5.3059    2.7321 S.3       1 <0>         0.2407
      4 C3          0.1717    5.8800    1.1172 C.2       1 <0>        -0.1876
      5 N1          0.2515    7.1172    0.6847 N.2       1 <0>        -0.1016
      6 N2         -0.1302    7.1780   -0.5409 N.2       1 <0>        -0.0764
      7 C4         -0.4691    5.9933   -0.9648 C.2       1 <0>        -0.0922
      8 N3         -0.2860    5.1209    0.0752 N.pl3     1 <0>        -0.1031
      9 C5         -0.5239    3.7388    0.0740 C.ar      1 <0>         0.0524
     10 C6         -1.8206    3.2567   -0.0474 C.ar      1 <0>        -0.1628
     11 C7         -2.0547    1.8954   -0.0534 C.ar      1 <0>        -0.0815
     12 C8         -1.0009    1.0099    0.0718 C.ar      1 <0>        -0.2077
     13 C9          0.2967    1.4861    0.1934 C.ar      1 <0>         0.1124
     14 C10         0.5356    2.8518    0.1945 C.ar      1 <0>        -0.1408
     15 O1          1.3327    0.6145    0.3109 O.3       1 <0>        -0.2008
     16 C11         1.0130   -0.7782    0.3017 C.3       1 <0>        -0.0643
     17 C12        -0.9688    5.6470   -2.3438 C.3       1 <0>        -0.0448
     18 C13         0.2050    5.4113   -3.2590 C.2       1 <0>         0.0842
     19 C14         0.6451    4.1556   -3.4881 C.2       1 <0>        -0.3032
     20 C15         1.7496    3.9596   -4.3518 C.2       1 <0>         0.3451
     21 O2          2.1643    2.8363   -4.5740 O.2       1 <0>        -0.3450
     22 N4          2.3380    5.0281   -4.9263 N.am      1 <0>        -0.3412
     23 H1          3.1187    4.8980   -5.5374 H         1 <0>         0.2780
     24 C16         1.8787    6.2692   -4.6805 C.2       1 <0>         0.3997
     25 O3          2.4193    7.2233   -5.2056 O.2       1 <0>        -0.3721
     26 N5          0.8264    6.4685   -3.8662 N.am      1 <0>        -0.2884
     27 H2          0.4953    7.3979   -3.7032 H         1 <0>         0.2808
     28 H3          0.6561    6.1899    5.4999 H         1 <0>         0.0844
     29 H4          2.3319    5.9019    4.9736 H         1 <0>         0.0854
     30 H5          1.8072    7.5448    5.4137 H         1 <0>         0.0938
     31 H6          1.9338    7.2806    2.9514 H         1 <0>         0.1205
     32 H7          0.2580    7.5686    3.4777 H         1 <0>         0.1194
     33 H8         -2.6462    3.9467   -0.1413 H         1 <0>         0.1434
     34 H9         -3.0634    1.5223   -0.1520 H         1 <0>         0.1415
     35 H10        -1.1872   -0.0539    0.0706 H         1 <0>         0.1441
     36 H11         1.5450    3.2243    0.2887 H         1 <0>         0.1659
     37 H12         1.9281   -1.3618    0.4024 H         1 <0>         0.1163
     38 H13         0.3452   -1.0032    1.1333 H         1 <0>         0.0690
     39 H14         0.5217   -1.0321   -0.6376 H         1 <0>         0.0724
     40 H15        -1.5774    4.7441   -2.2936 H         1 <0>         0.1251
     41 H16        -1.5707    6.4699   -2.7293 H         1 <0>         0.1285
     42 H17         0.1612    3.3119   -3.0185 H         1 <0>         0.1766
@<TRIPOS>BOND
     1    1    2 1
     2    1   28 1
     3    1   29 1
     4    1   30 1
     5    2    3 1
     6    2   31 1
     7    2   32 1
     8    3    4 1
     9    4    8 1
    10    4    5 2
    11    5    6 1
    12    6    7 2
    13    7    8 1
    14    7   17 1
    15    8    9 1
    16    9   14 ar
    17    9   10 ar
    18   10   11 ar
    19   10   33 1
    20   11   12 ar
    21   11   34 1
    22   12   13 ar
    23   12   35 1
    24   13   14 ar
    25   13   15 1
    26   14   36 1
    27   15   16 1
    28   16   37 1
    29   16   38 1
    30   16   39 1
    31   17   18 1
    32   17   40 1
    33   17   41 1
    34   18   26 1
    35   18   19 2
    36   19   20 1
    37   19   42 1
    38   20   21 2
    39   20   22 am
    40   22   23 1
    41   22   24 am
    42   24   25 2
    43   24   26 am
    44   26   27 1
@<TRIPOS>MOLECULE
ZINC04083562
   40    43     0     0     0
SMALL
USER_CHARGES

@<TRIPOS>ATOM
      1 C1          0.4471    5.2011    2.8615 C.ar      1 <0>        -0.1826
      2 C2          1.0713    4.7187    1.7197 C.ar      1 <0>        -0.0618
      3 C3          0.6960    3.5134    1.1690 C.ar      1 <0>        -0.2060
      4 C4         -0.3206    2.7652    1.7605 C.ar      1 <0>         0.1277
      5 C5         -0.9517    3.2631    2.9128 C.ar      1 <0>        -0.1975
      6 C6         -0.5601    4.4904    3.4518 C.ar      1 <0>        -0.0318
      7 C7         -2.0230    2.4710    3.5437 C.2       1 <0>         0.3193
      8 O1         -2.5923    2.8632    4.5460 O.2       1 <0>        -0.3114
      9 C8         -2.3787    1.1857    2.9153 C.ar      1 <0>        -0.1973
     10 C9         -3.3831    0.3807    3.4568 C.ar      1 <0>        -0.0308
     11 C10        -3.6973   -0.8076    2.8591 C.ar      1 <0>        -0.1839
     12 C11        -3.0245   -1.2189    1.7171 C.ar      1 <0>        -0.0637
     13 C12        -2.0307   -0.4396    1.1673 C.ar      1 <0>        -0.2090
     14 C13        -1.6927    0.7761    1.7597 C.ar      1 <0>         0.1295
     15 N1         -0.6984    1.5583    1.2133 N.pl3     1 <0>        -0.2099
     16 C14        -0.0127    1.0858    0.0080 C.3       1 <0>        -0.0270
     17 C15        -0.7527    1.5927   -1.2315 C.3       1 <0>        -0.1900
     18 C16        -0.0366    1.0992   -2.4903 C.3       1 <0>        -0.0586
     19 C17        -0.7654    1.5984   -3.7112 C.2       1 <0>        -0.2439
     20 N2         -0.6030    2.7108   -4.3983 N.2       1 <0>        -0.0417
     21 N3         -1.3038    2.9839   -5.4107 N.2       1 <0>        -0.1715
     22 C18        -2.2511    2.1643   -5.8471 C.2       1 <0>        -0.0279
     23 S1         -2.0937    0.8454   -4.6463 S.3       1 <0>         0.1746
     24 N4         -3.1121    2.2900   -6.9272 N.pl3     1 <0>        -0.3506
     25 H1          0.7525    6.1485    3.2805 H         1 <0>         0.1353
     26 H2          1.8594    5.2948    1.2578 H         1 <0>         0.1335
     27 H3          1.1890    3.1481    0.2802 H         1 <0>         0.1373
     28 H4         -1.0430    4.8707    4.3399 H         1 <0>         0.1550
     29 H5         -3.9098    0.6960    4.3454 H         1 <0>         0.1553
     30 H6         -4.4741   -1.4301    3.2779 H         1 <0>         0.1349
     31 H7         -3.2829   -2.1600    1.2545 H         1 <0>         0.1313
     32 H8         -1.5137   -0.7703    0.2786 H         1 <0>         0.1346
     33 H9          0.0021   -0.0041    0.0020 H         1 <0>         0.1028
     34 H10         1.0099    1.4631    0.0003 H         1 <0>         0.1061
     35 H11        -1.7753    1.2154   -1.2238 H         1 <0>         0.1025
     36 H12        -0.7675    2.6825   -1.2255 H         1 <0>         0.1133
     37 H13         0.9860    1.4765   -2.4981 H         1 <0>         0.1146
     38 H14        -0.0218    0.0093   -2.4963 H         1 <0>         0.0968
     39 H15        -3.0682    3.0763   -7.4935 H         1 <0>         0.2495
     40 H16        -3.7583    1.5917   -7.1162 H         1 <0>         0.2428
@<TRIPOS>BOND
     1    1    6 ar
     2    1    2 ar
     3    1   25 1
     4    2    3 ar
     5    2   26 1
     6    3    4 ar
     7    3   27 1
     8    4   15 1
     9    4    5 ar
    10    5    6 ar
    11    5    7 1
    12    6   28 1
    13    7    8 2
    14    7    9 1
    15    9   14 ar
    16    9   10 ar
    17   10   11 ar
    18   10   29 1
    19   11   12 ar
    20   11   30 1
    21   12   13 ar
    22   12   31 1
    23   13   14 ar
    24   13   32 1
    25   14   15 1
    26   15   16 1
    27   16   17 1
    28   16   33 1
    29   16   34 1
    30   17   18 1
    31   17   35 1
    32   17   36 1
    33   18   19 1
    34   18   37 1
    35   18   38 1
    36   19   23 1
    37   19   20 2
    38   20   21 1
    39   21   22 2
    40   22   23 1
    41   22   24 1
    42   24   39 1
    43   24   40 1
@<TRIPOS>MOLECULE
ZINC04087362
   43    46     0     0     0
SMALL
USER_CHARGES

@<TRIPOS>ATOM
      1 C1          3.6173    4.2241    1.7103 C.3       1 <0>        -0.1682
      2 C2          2.2051    4.3778    2.2134 C.2       1 <0>        -0.0580
      3 C3          1.1478    4.0905    1.4332 C.2       1 <0>        -0.3252
      4 S1         -0.2453    4.4287    2.4898 S.3       1 <0>         0.5060
      5 C4          0.5915    4.9424    3.9161 C.2       1 <0>        -0.1351
      6 C5          1.9296    4.8438    3.5517 C.2       1 <0>        -0.2396
      7 C6          3.0077    5.1907    4.4824 C.2       1 <0>         0.3624
      8 O1          3.4766    4.3394    5.2151 O.2       1 <0>        -0.3578
      9 N1          3.4796    6.4524    4.5269 N.am      1 <0>        -0.4291
     10 N2          0.0572    5.3525    5.1264 N.am      1 <0>        -0.2604
     11 C7         -1.2793    5.3837    5.2970 C.2       1 <0>         0.3896
     12 O2         -2.0168    5.0514    4.3876 O.2       1 <0>        -0.3292
     13 C8         -1.8448    5.8177    6.5779 C.2       1 <0>        -0.1284
     14 C9         -3.1738    5.8960    6.8833 C.2       1 <0>        -0.1129
     15 C10        -3.2572    6.3551    8.2070 C.2       1 <0>        -0.2341
     16 C11        -1.9918    6.5348    8.6462 C.2       1 <0>        -0.0627
     17 O3         -1.1435    6.2044    7.6637 O.3       1 <0>        -0.0545
     18 C12         1.1432    3.5954    0.0099 C.3       1 <0>        -0.0257
     19 C13         1.1693    2.0886    0.0021 C.ar      1 <0>        -0.0734
     20 C14        -0.0167    1.3782    0.0096 C.ar      1 <0>        -0.1170
     21 C15         0.0021   -0.0041    0.0020 C.ar      1 <0>        -0.1091
     22 C16         1.2108   -0.6810   -0.0131 C.ar      1 <0>         0.0037
     23 C17         2.4055    0.0347   -0.0206 C.ar      1 <0>         0.0067
     24 C18         2.3790    1.4199   -0.0122 C.ar      1 <0>        -0.1063
     25 O4          3.4443   -0.8506   -0.0356 O.3       1 <0>        -0.2072
     26 C19         2.8735   -2.1061   -0.4495 C.3       1 <0>         0.1070
     27 O5          1.5011   -2.0147   -0.0235 O.3       1 <0>        -0.2076
     28 H1          3.9432    5.1576    1.2515 H         1 <0>         0.0804
     29 H2          4.2755    3.9800    2.5442 H         1 <0>         0.0983
     30 H3          3.6547    3.4236    0.9715 H         1 <0>         0.0873
     31 H4          3.1059    7.1308    3.9430 H         1 <0>         0.2190
     32 H5          4.1930    6.6819    5.1428 H         1 <0>         0.2268
     33 H6          0.6450    5.6173    5.8511 H         1 <0>         0.2573
     34 H7         -4.0003    5.6521    6.2323 H         1 <0>         0.1779
     35 H8         -4.1624    6.5319    8.7688 H         1 <0>         0.1651
     36 H9         -1.7108    6.8830    9.6292 H         1 <0>         0.2046
     37 H10         2.0219    3.9767   -0.5102 H         1 <0>         0.1034
     38 H11         0.2423    3.9458   -0.4938 H         1 <0>         0.0995
     39 H12        -0.9599    1.9042    0.0169 H         1 <0>         0.1410
     40 H13        -0.9259   -0.5565    0.0082 H         1 <0>         0.1443
     41 H14         3.3040    1.9774   -0.0180 H         1 <0>         0.1443
     42 H15         2.9320   -2.2150   -1.5324 H         1 <0>         0.0864
     43 H16         3.3744   -2.9369    0.0476 H         1 <0>         0.1304
@<TRIPOS>BOND
     1    1    2 1
     2    1   28 1
     3    1   29 1
     4    1   30 1
     5    2    6 1
     6    2    3 2
     7    3    4 1
     8    3   18 1
     9    4    5 1
    10    5    6 2
    11    5   10 1
    12    6    7 1
    13    7    8 2
    14    7    9 am
    15    9   31 1
    16    9   32 1
    17   10   11 am
    18   10   33 1
    19   11   12 2
    20   11   13 1
    21   13   17 1
    22   13   14 2
    23   14   15 1
    24   14   34 1
    25   15   16 2
    26   15   35 1
    27   16   17 1
    28   16   36 1
    29   18   19 1
    30   18   37 1
    31   18   38 1
    32   19   24 ar
    33   19   20 ar
    34   20   21 ar
    35   20   39 1
    36   21   22 ar
    37   21   40 1
    38   22   27 1
    39   22   23 ar
    40   23   24 ar
    41   23   25 1
    42   24   41 1
    43   25   26 1
    44   26   27 1
    45   26   42 1
    46   26   43 1
@<TRIPOS>MOLECULE
ZINC04088451
   41    43     0     0     0
SMALL
USER_CHARGES

@<TRIPOS>ATOM
      1 C1          3.7975   -2.1344   -0.8466 C.ar      1 <0>        -0.1894
      2 C2          5.0054   -2.7926   -0.9703 C.ar      1 <0>        -0.0093
      3 C3          6.1441   -2.2662   -0.3884 C.ar      1 <0>        -0.7825
      4 C4          6.0788   -1.0768    0.3140 C.ar      1 <0>        -0.0103
      5 C5          4.8753   -0.4105    0.4361 C.ar      1 <0>        -0.1542
      6 C6          3.7297   -0.9364   -0.1470 C.ar      1 <0>         0.1215
      7 N1          2.5094   -0.2642   -0.0253 N.am      1 <0>        -0.3289
      8 C7          2.4801    1.0832   -0.0187 C.2       1 <0>         0.3531
      9 O1          3.5192    1.7139   -0.0337 O.2       1 <0>        -0.3490
     10 C8          1.1844    1.7941    0.0066 C.ar      1 <0>        -0.1379
     11 C9         -0.0125    1.0754    0.0239 C.ar      1 <0>        -0.1071
     12 C10        -1.2114    1.7511    0.0408 C.ar      1 <0>        -0.1366
     13 C11        -1.2442    3.1415    0.0502 C.ar      1 <0>        -0.0355
     14 C12        -0.0660    3.8567    0.0364 C.ar      1 <0>        -0.0742
     15 C13         1.1474    3.1864    0.0139 C.ar      1 <0>        -0.0608
     16 C14        -0.0318    5.3629    0.0497 C.3       1 <0>        -0.1202
     17 C15        -1.3885    5.9349   -0.3560 C.3       1 <0>        -0.1598
     18 C16        -2.4703    5.2667    0.5008 C.3       1 <0>        -0.1597
     19 C17        -2.5955    3.8079    0.0664 C.3       1 <0>        -0.1249
     20 S1          7.6818   -3.1126   -0.5429 S.o2      1 <0>         2.7634
     21 O2          7.5856   -3.9201   -1.7082 O.2       1 <0>        -0.9198
     22 O3          8.7011   -2.1370   -0.3741 O.2       1 <0>        -0.9167
     23 N2          7.8014   -4.1493    0.7429 N.pl3     1 <0>        -0.9320
     24 H1          2.9077   -2.5483   -1.2974 H         1 <0>         0.1367
     25 H2          5.0599   -3.7215   -1.5185 H         1 <0>         0.1538
     26 H3          6.9699   -0.6684    0.7672 H         1 <0>         0.1570
     27 H4          4.8250    0.5188    0.9842 H         1 <0>         0.1735
     28 H5          1.6842   -0.7677    0.0545 H         1 <0>         0.2378
     29 H6          0.0023   -0.0045    0.0196 H         1 <0>         0.1219
     30 H7         -2.1373    1.1952    0.0506 H         1 <0>         0.1341
     31 H8          2.0701    3.7475    0.0024 H         1 <0>         0.1576
     32 H9          0.2182    5.7079    1.0530 H         1 <0>         0.0958
     33 H10         0.7286    5.7112   -0.6493 H         1 <0>         0.0949
     34 H11        -1.3986    7.0116   -0.1862 H         1 <0>         0.0858
     35 H12        -1.5740    5.7277   -1.4099 H         1 <0>         0.0884
     36 H13        -2.1869    5.3136    1.5522 H         1 <0>         0.0885
     37 H14        -3.4221    5.7771    0.3540 H         1 <0>         0.0850
     38 H15        -3.2481    3.2805    0.7622 H         1 <0>         0.0917
     39 H16        -3.0286    3.7665   -0.9331 H         1 <0>         0.0970
     40 H17         7.0878   -4.1933    1.3984 H         1 <0>         0.2288
     41 H18         8.5850   -4.7126    0.8405 H         1 <0>         0.2427
@<TRIPOS>BOND
     1    1    6 ar
     2    1    2 ar
     3    1   24 1
     4    2    3 ar
     5    2   25 1
     6    3    4 ar
     7    3   20 1
     8    4    5 ar
     9    4   26 1
    10    5    6 ar
    11    5   27 1
    12    6    7 1
    13    7    8 am
    14    7   28 1
    15    8    9 2
    16    8   10 1
    17   10   15 ar
    18   10   11 ar
    19   11   12 ar
    20   11   29 1
    21   12   13 ar
    22   12   30 1
    23   13   19 1
    24   13   14 ar
    25   14   15 ar
    26   14   16 1
    27   15   31 1
    28   16   17 1
    29   16   32 1
    30   16   33 1
    31   17   18 1
    32   17   34 1
    33   17   35 1
    34   18   19 1
    35   18   36 1
    36   18   37 1
    37   19   38 1
    38   19   39 1
    39   20   21 2
    40   20   22 2
    41   20   23 1
    42   23   40 1
    43   23   41 1
@<TRIPOS>MOLECULE
ZINC04092555
   41    43     0     0     0
SMALL
USER_CHARGES

@<TRIPOS>ATOM
      1 C1          0.3341   -6.3045    0.2458 C.3       1 <0>        -0.0625
      2 O1          0.5547   -4.8926    0.2519 O.3       1 <0>        -0.2052
      3 C2         -0.5263   -4.0980    0.0310 C.ar      1 <0>         0.0972
      4 C3         -1.7724   -4.6677   -0.1864 C.ar      1 <0>        -0.2028
      5 C4         -2.8735   -3.8629   -0.4118 C.ar      1 <0>        -0.1526
      6 C5         -2.7368   -2.4845   -0.4151 C.ar      1 <0>         0.0331
      7 C6         -1.4860   -1.9094   -0.2019 C.ar      1 <0>         0.0726
      8 C7         -0.3824   -2.7194    0.0236 C.ar      1 <0>        -0.1671
      9 N1         -1.3440   -0.5167   -0.2095 N.pl3     1 <0>        -0.2303
     10 C8         -0.1581    0.0476    0.1422 C.2       1 <0>         0.3236
     11 C9          0.3223    1.1531   -0.5790 C.2       1 <0>        -0.3403
     12 C10         1.5410    1.7337   -0.2181 C.2       1 <0>         0.0335
     13 C11         2.2502    1.1865    0.8636 C.2       1 <0>        -0.1893
     14 C12         3.4838    1.7374    1.2644 C.2       1 <0>        -0.0670
     15 C13         4.1587    1.1991    2.3110 C.2       1 <0>        -0.2164
     16 C14         3.6327    0.0896    3.0017 C.2       1 <0>         0.2965
     17 O2          4.2500   -0.3894    3.9464 O.2       1 <0>        -0.3359
     18 C15         2.4089   -0.4682    2.6152 C.2       1 <0>        -0.2840
     19 C16         1.7143    0.0718    1.5520 C.2       1 <0>         0.1312
     20 O3          0.5330   -0.4587    1.1703 O.3       1 <0>        -0.1071
     21 C17        -0.4500    1.6926   -1.7111 C.2       1 <0>         0.3762
     22 O4         -1.4545    1.1208   -2.0895 O.2       1 <0>        -0.3909
     23 N2         -0.0436    2.8200   -2.3278 N.am      1 <0>        -0.4227
     24 O5         -3.8222   -1.6932   -0.6309 O.3       1 <0>        -0.2180
     25 C18        -5.0730   -2.3510   -0.8421 C.3       1 <0>        -0.0582
     26 H1         -0.3837   -6.5634    1.0242 H         1 <0>         0.0685
     27 H2         -0.0580   -6.6068   -0.7252 H         1 <0>         0.0674
     28 H3          1.2758   -6.8202    0.4339 H         1 <0>         0.1126
     29 H4         -1.8824   -5.7421   -0.1799 H         1 <0>         0.1406
     30 H5         -3.8424   -4.3093   -0.5807 H         1 <0>         0.1426
     31 H6          0.5877   -2.2762    0.1936 H         1 <0>         0.1649
     32 H7         -2.0916    0.0457   -0.4657 H         1 <0>         0.3047
     33 H8          1.9288    2.5845   -0.7587 H         1 <0>         0.1410
     34 H9          3.8921    2.5878    0.7384 H         1 <0>         0.1295
     35 H10         5.1037    1.6234    2.6163 H         1 <0>         0.1502
     36 H11         2.0090   -1.3185    3.1476 H         1 <0>         0.1632
     37 H12         0.7575    3.2761   -2.0260 H         1 <0>         0.2161
     38 H13        -0.5522    3.1753   -3.0734 H         1 <0>         0.2366
     39 H14        -5.0013   -2.9952   -1.7184 H         1 <0>         0.0697
     40 H15        -5.3190   -2.9534    0.0325 H         1 <0>         0.0674
     41 H16        -5.8529   -1.6064   -1.0014 H         1 <0>         0.1114
@<TRIPOS>BOND
     1    1    2 1
     2    1   26 1
     3    1   27 1
     4    1   28 1
     5    2    3 1
     6    3    8 ar
     7    3    4 ar
     8    4    5 ar
     9    4   29 1
    10    5    6 ar
    11    5   30 1
    12    6    7 ar
    13    6   24 1
    14    7    8 ar
    15    7    9 1
    16    8   31 1
    17    9   10 1
    18    9   32 1
    19   10   20 1
    20   10   11 2
    21   11   12 1
    22   11   21 1
    23   12   13 2
    24   12   33 1
    25   13   19 1
    26   13   14 1
    27   14   15 2
    28   14   34 1
    29   15   16 1
    30   15   35 1
    31   16   17 2
    32   16   18 1
    33   18   19 2
    34   18   36 1
    35   19   20 1
    36   21   22 2
    37   21   23 am
    38   23   37 1
    39   23   38 1
    40   24   25 1
    41   25   39 1
    42   25   40 1
    43   25   41 1
@<TRIPOS>MOLECULE
ZINC04115421
   41    43     0     0     0
SMALL
USER_CHARGES

@<TRIPOS>ATOM
      1 C1          5.9835   -0.9421   -3.8268 C.3       1 <0>        -0.2155
      2 C2          5.4596   -1.2027   -2.4132 C.3       1 <0>        -0.0039
      3 O1          4.2129   -0.4842   -2.2188 O.3       1 <0>        -0.2694
      4 C3          3.6161   -0.6084   -1.0170 C.2       1 <0>         0.3521
      5 O2          4.1237   -1.2984   -0.1550 O.2       1 <0>        -0.3662
      6 C4          2.3477    0.0926   -0.7480 C.ar      1 <0>        -0.1208
      7 C5          1.7271   -0.0354    0.4989 C.ar      1 <0>        -0.0525
      8 C6          0.5476    0.6182    0.7462 C.ar      1 <0>        -0.1575
      9 C7         -0.0325    1.4094   -0.2427 C.ar      1 <0>         0.1137
     10 C8          0.5832    1.5389   -1.4854 C.ar      1 <0>        -0.1407
     11 C9          1.7626    0.8874   -1.7389 C.ar      1 <0>        -0.0641
     12 N1         -1.2307    2.0663    0.0093 N.pl3     1 <0>        -0.3837
     13 C10        -1.2527    3.4514    0.1268 C.3       1 <0>        -0.0028
     14 C11        -2.4436    4.0981    0.2373 C.2       1 <0>        -0.0607
     15 C12        -2.4942    5.5642    0.3625 C.2       1 <0>         0.3009
     16 O3         -3.5650    6.1310    0.4612 O.2       1 <0>        -0.2201
     17 C13        -1.2372    6.3460    0.3682 C.ar      1 <0>        -0.1187
     18 C14        -1.2623    7.7298    0.4858 C.ar      1 <0>        -0.0749
     19 C15        -0.0733    8.4432    0.4846 C.ar      1 <0>        -0.1121
     20 C16         1.1361    7.7866    0.3675 C.ar      1 <0>        -0.1128
     21 C17         1.1768    6.4056    0.2489 C.ar      1 <0>        -0.0741
     22 C18        -0.0061    5.6777    0.2487 C.ar      1 <0>        -0.1182
     23 C19         0.0133    4.2026    0.1242 C.2       1 <0>         0.2829
     24 O4          1.0714    3.6135    0.0205 O.2       1 <0>        -0.2664
     25 N2         -3.6259    3.3674    0.2320 N.2       1 <0>        -0.2017
     26 H1          5.2490   -1.2851   -4.5554 H         1 <0>         0.0855
     27 H2          6.1552    0.1261   -3.9595 H         1 <0>         0.0858
     28 H3          6.9193   -1.4815   -3.9728 H         1 <0>         0.0888
     29 H4          6.1941   -0.8595   -1.6846 H         1 <0>         0.0894
     30 H5          5.2878   -2.2709   -2.2805 H         1 <0>         0.0889
     31 H6          2.1767   -0.6481    1.2662 H         1 <0>         0.1557
     32 H7          0.0678    0.5198    1.7088 H         1 <0>         0.1381
     33 H8          0.1310    2.1531   -2.2500 H         1 <0>         0.1390
     34 H9          2.2396    0.9884   -2.7025 H         1 <0>         0.1487
     35 H10        -2.0517    1.5585    0.1032 H         1 <0>         0.2423
     36 H11        -2.2050    8.2484    0.5783 H         1 <0>         0.1598
     37 H12        -0.0932    9.5192    0.5760 H         1 <0>         0.1424
     38 H13         2.0561    8.3524    0.3680 H         1 <0>         0.1424
     39 H14         2.1254    5.8975    0.1575 H         1 <0>         0.1599
     40 H15        -3.5984    2.4010    0.1532 H         1 <0>         0.1443
     41 H16        -1.2116    3.7046    1.0934 H         1 <0>         0.0760
@<TRIPOS>BOND
     1    1    2 1
     2    1   26 1
     3    1   27 1
     4    1   28 1
     5    2    3 1
     6    2   29 1
     7    2   30 1
     8    3    4 1
     9    4    5 2
    10    4    6 1
    11    6   11 ar
    12    6    7 ar
    13    7    8 ar
    14    7   31 1
    15    8    9 ar
    16    8   32 1
    17    9   10 ar
    18    9   12 1
    19   10   11 ar
    20   10   33 1
    21   11   34 1
    22   12   13 1
    23   12   35 1
    24   13   23 1
    25   13   41 1
    26   13   14 1
    27   14   15 1
    28   14   25 2
    29   15   16 2
    30   15   17 1
    31   17   22 ar
    32   17   18 ar
    33   18   19 ar
    34   18   36 1
    35   19   20 ar
    36   19   37 1
    37   20   21 ar
    38   20   38 1
    39   21   22 ar
    40   21   39 1
    41   22   23 1
    42   23   24 2
    43   25   40 1
@<TRIPOS>MOLECULE
ZINC04115421
   41    43     0     0     0
SMALL
USER_CHARGES

@<TRIPOS>ATOM
      1 C1          5.9835   -0.9421   -3.8268 C.3       1 <0>        -0.2154
      2 C2          5.4596   -1.2027   -2.4132 C.3       1 <0>        -0.0039
      3 O1          4.2129   -0.4842   -2.2188 O.3       1 <0>        -0.2698
      4 C3          3.6161   -0.6084   -1.0170 C.2       1 <0>         0.3528
      5 O2          4.1237   -1.2984   -0.1550 O.2       1 <0>        -0.3683
      6 C4          2.3477    0.0926   -0.7480 C.ar      1 <0>        -0.1256
      7 C5          1.7271   -0.0354    0.4989 C.ar      1 <0>        -0.0525
      8 C6          0.5476    0.6182    0.7462 C.ar      1 <0>        -0.1602
      9 C7         -0.0325    1.4094   -0.2427 C.ar      1 <0>         0.1174
     10 C8          0.5832    1.5389   -1.4854 C.ar      1 <0>        -0.1455
     11 C9          1.7626    0.8874   -1.7389 C.ar      1 <0>        -0.0644
     12 N1         -1.2307    2.0663    0.0093 N.pl3     1 <0>        -0.3687
     13 C10        -1.2527    3.4514    0.1268 C.3       1 <0>         0.0593
     14 C11        -2.4436    4.0981    0.2373 C.2       1 <0>        -0.0607
     15 C12        -2.4942    5.5642    0.3625 C.2       1 <0>         0.2678
     16 O3         -3.5650    6.1310    0.4612 O.2       1 <0>        -0.2604
     17 C13        -1.2372    6.3460    0.3682 C.ar      1 <0>        -0.1262
     18 C14        -1.2623    7.7298    0.4858 C.ar      1 <0>        -0.0735
     19 C15        -0.0733    8.4432    0.4846 C.ar      1 <0>        -0.1147
     20 C16         1.1361    7.7866    0.3675 C.ar      1 <0>        -0.1095
     21 C17         1.1768    6.4056    0.2489 C.ar      1 <0>        -0.0755
     22 C18        -0.0061    5.6777    0.2487 C.ar      1 <0>        -0.1138
     23 C19         0.0133    4.2026    0.1242 C.2       1 <0>         0.2793
     24 O4          1.0714    3.6135    0.0205 O.2       1 <0>        -0.2626
     25 N2         -3.6259    3.3674    0.2320 N.2       1 <0>        -0.2223
     26 H1          5.2490   -1.2851   -4.5554 H         1 <0>         0.0854
     27 H2          6.1552    0.1261   -3.9595 H         1 <0>         0.0854
     28 H3          6.9193   -1.4815   -3.9728 H         1 <0>         0.0880
     29 H4          6.1941   -0.8595   -1.6846 H         1 <0>         0.0888
     30 H5          5.2878   -2.2709   -2.2805 H         1 <0>         0.0886
     31 H6          2.1767   -0.6481    1.2662 H         1 <0>         0.1539
     32 H7          0.0678    0.5198    1.7088 H         1 <0>         0.1386
     33 H8          0.1310    2.1531   -2.2500 H         1 <0>         0.1381
     34 H9          2.2396    0.9884   -2.7025 H         1 <0>         0.1466
     35 H10        -2.0517    1.5585    0.1032 H         1 <0>         0.2662
     36 H11        -2.2050    8.2484    0.5783 H         1 <0>         0.1579
     37 H12        -0.0932    9.5192    0.5760 H         1 <0>         0.1422
     38 H13         2.0561    8.3524    0.3680 H         1 <0>         0.1428
     39 H14         2.1254    5.8975    0.1575 H         1 <0>         0.1611
     40 H15        -4.4785    3.8239    0.3071 H         1 <0>         0.1682
     41 H16        -1.2115    3.7046    1.0933 H         1 <0>         0.0651
@<TRIPOS>BOND
     1    1    2 1
     2    1   26 1
     3    1   27 1
     4    1   28 1
     5    2    3 1
     6    2   29 1
     7    2   30 1
     8    3    4 1
     9    4    5 2
    10    4    6 1
    11    6   11 ar
    12    6    7 ar
    13    7    8 ar
    14    7   31 1
    15    8    9 ar
    16    8   32 1
    17    9   10 ar
    18    9   12 1
    19   10   11 ar
    20   10   33 1
    21   11   34 1
    22   12   13 1
    23   12   35 1
    24   13   23 1
    25   13   41 1
    26   13   14 1
    27   14   15 1
    28   14   25 2
    29   15   16 2
    30   15   17 1
    31   17   22 ar
    32   17   18 ar
    33   18   19 ar
    34   18   36 1
    35   19   20 ar
    36   19   37 1
    37   20   21 ar
    38   20   38 1
    39   21   22 ar
    40   21   39 1
    41   22   23 1
    42   23   24 2
    43   25   40 1
@<TRIPOS>MOLECULE
ZINC04115821
   39    41     0     0     0
SMALL
USER_CHARGES

@<TRIPOS>ATOM
      1 C1          0.1569    4.0727    0.8546 C.3       1 <0>        -0.0627
      2 O1          1.1597    3.4435    0.0543 O.3       1 <0>        -0.2109
      3 C2          1.1783    2.0840    0.0441 C.ar      1 <0>         0.0837
      4 C3          2.1257    1.4092   -0.7117 C.ar      1 <0>        -0.1402
      5 C4          2.1455    0.0286   -0.7220 C.ar      1 <0>        -0.0884
      6 C5          1.2167   -0.6843    0.0243 C.ar      1 <0>         0.0210
      7 C6          0.2686   -0.0083    0.7806 C.ar      1 <0>        -0.1204
      8 C7          0.2500    1.3724    0.7901 C.ar      1 <0>        -0.2053
      9 N1          1.2359   -2.0853    0.0140 N.am      1 <0>        -0.3201
     10 C8          2.4070   -2.7423   -0.1007 C.2       1 <0>         0.3147
     11 O2          3.4513   -2.1254   -0.0985 O.2       1 <0>        -0.3393
     12 C9          2.4190   -4.2436   -0.2316 C.3       1 <0>        -0.3412
     13 S1          4.1283   -4.8238   -0.3661 S.3       1 <0>         0.4125
     14 C10         3.8525   -6.5588   -0.5030 C.2       1 <0>        -0.1939
     15 C11         4.9529   -7.4366   -0.6391 C.2       1 <0>         0.2497
     16 N2          4.7618   -8.7328   -0.7476 N.am      1 <0>        -0.1830
     17 C12         3.5148   -9.2271   -0.7291 C.ar      1 <0>         0.0216
     18 C13         3.2859  -10.6084   -0.8327 C.ar      1 <0>        -0.1668
     19 C14         2.0108  -11.0867   -0.8012 C.ar      1 <0>        -0.0813
     20 C15         0.9263  -10.2237   -0.6670 C.ar      1 <0>        -0.1506
     21 C16         1.1117   -8.8783   -0.5639 C.ar      1 <0>        -0.0602
     22 C17         2.4128   -8.3502   -0.5875 C.ar      1 <0>        -0.0459
     23 N3          2.6219   -7.0303   -0.4778 N.2       1 <0>        -0.1452
     24 O3          6.2136   -6.9382   -0.6574 O.2       1 <0>        -0.4057
     25 H1         -0.8301    3.7689    0.5056 H         1 <0>         0.0660
     26 H2          0.2821    3.7738    1.8953 H         1 <0>         0.0681
     27 H3          0.2535    5.1554    0.7734 H         1 <0>         0.1081
     28 H4          2.8509    1.9639   -1.2887 H         1 <0>         0.1495
     29 H5          2.8830   -0.4968   -1.3108 H         1 <0>         0.1650
     30 H6         -0.4542   -0.5622    1.3612 H         1 <0>         0.1291
     31 H7         -0.4872    1.8984    1.3785 H         1 <0>         0.1366
     32 H8          0.4063   -2.5822    0.0893 H         1 <0>         0.2319
     33 H9          1.9524   -4.6886    0.6472 H         1 <0>         0.1333
     34 H10         1.8652   -4.5350   -1.1239 H         1 <0>         0.1341
     35 H11         4.1177  -11.2893   -0.9366 H         1 <0>         0.1396
     36 H12         1.8387  -12.1499   -0.8812 H         1 <0>         0.1386
     37 H13        -0.0754  -10.6267   -0.6445 H         1 <0>         0.1395
     38 H14         0.2615   -8.2204   -0.4599 H         1 <0>         0.1506
     39 H15         5.5438   -9.3486   -0.8436 H         1 <0>         0.2676
@<TRIPOS>BOND
     1    1    2 1
     2    1   25 1
     3    1   26 1
     4    1   27 1
     5    2    3 1
     6    3    8 ar
     7    3    4 ar
     8    4    5 ar
     9    4   28 1
    10    5    6 ar
    11    5   29 1
    12    6    7 ar
    13    6    9 1
    14    7    8 ar
    15    7   30 1
    16    8   31 1
    17    9   10 am
    18    9   32 1
    19   10   11 2
    20   10   12 1
    21   12   13 1
    22   12   33 1
    23   12   34 1
    24   13   14 1
    25   14   15 1
    26   14   23 2
    27   15   16 am
    28   15   24 2
    29   16   39 1
    30   16   17 1
    31   17   18 ar
    32   17   22 ar
    33   18   19 ar
    34   18   35 1
    35   19   20 ar
    36   19   36 1
    37   20   21 ar
    38   20   37 1
    39   21   22 ar
    40   21   38 1
    41   22   23 1
@<TRIPOS>MOLECULE
ZINC04115821
   39    41     0     0     0
SMALL
USER_CHARGES

@<TRIPOS>ATOM
      1 C1          0.1471    4.0906    0.6731 C.3       1 <0>        -0.0630
      2 O1          1.1540    3.4517   -0.1144 O.3       1 <0>        -0.2105
      3 C2          1.1728    2.0922   -0.1076 C.ar      1 <0>         0.0853
      4 C3          2.1240    1.4083   -0.8504 C.ar      1 <0>        -0.1406
      5 C4          2.1441    0.0277   -0.8434 C.ar      1 <0>        -0.0884
      6 C5          1.2117   -0.6761   -0.0929 C.ar      1 <0>         0.0192
      7 C6          0.2598    0.0090    0.6503 C.ar      1 <0>        -0.1187
      8 C7          0.2410    1.3897    0.6426 C.ar      1 <0>        -0.2050
      9 N1          1.2312   -2.0771   -0.0858 N.am      1 <0>        -0.3180
     10 C8          2.4029   -2.7352   -0.1866 C.2       1 <0>         0.3116
     11 O2          3.4471   -2.1181   -0.1869 O.2       1 <0>        -0.3414
     12 C9          2.4158   -4.2380   -0.2988 C.3       1 <0>        -0.2906
     13 S1          4.1258   -4.8195   -0.4177 S.3       1 <0>         0.2558
     14 C10         3.8510   -6.5561   -0.5344 C.ar      1 <0>        -0.2501
     15 C11         4.9529   -7.4366   -0.6392 C.ar      1 <0>         0.1429
     16 N2          4.7618   -8.7328   -0.7477 N.ar      1 <0>        -0.1425
     17 C12         3.5148   -9.2271   -0.7294 C.ar      1 <0>         0.0123
     18 C13         3.2859  -10.6084   -0.8331 C.ar      1 <0>        -0.0981
     19 C14         2.0114  -11.0877   -0.7860 C.ar      1 <0>        -0.1113
     20 C15         0.9262  -10.2234   -0.6677 C.ar      1 <0>        -0.1268
     21 C16         1.1108   -8.8768   -0.5804 C.ar      1 <0>        -0.0880
     22 C17         2.4120   -8.3487   -0.6040 C.ar      1 <0>        -0.0516
     23 N3          2.6203   -7.0275   -0.5095 N.ar      1 <0>        -0.1240
     24 O3          6.2136   -6.9381   -0.6580 O.3       1 <0>        -0.2151
     25 H1         -0.8381    3.7823    0.3231 H         1 <0>         0.0665
     26 H2          0.2673    3.8046    1.7181 H         1 <0>         0.0683
     27 H3          0.2440    5.1722    0.5790 H         1 <0>         0.1089
     28 H4          2.8520    1.9560   -1.4306 H         1 <0>         0.1497
     29 H5          2.8845   -0.5048   -1.4221 H         1 <0>         0.1637
     30 H6         -0.4657   -0.5378    1.2341 H         1 <0>         0.1299
     31 H7         -0.4992    1.9228    1.2208 H         1 <0>         0.1376
     32 H8          0.4013   -2.5732   -0.0084 H         1 <0>         0.2331
     33 H9          1.9450   -4.6722    0.5832 H         1 <0>         0.1370
     34 H10         1.8664   -4.5406   -1.1901 H         1 <0>         0.1381
     35 H11         4.1177  -11.2893   -0.9371 H         1 <0>         0.1544
     36 H12         1.8399  -12.1519   -0.8537 H         1 <0>         0.1375
     37 H13        -0.0756  -10.6263   -0.6452 H         1 <0>         0.1361
     38 H14         0.2600   -8.2178   -0.4887 H         1 <0>         0.1442
     39 H15         6.1799   -5.9430   -0.5655 H         1 <0>         0.2516
@<TRIPOS>BOND
     1    1    2 1
     2    1   25 1
     3    1   26 1
     4    1   27 1
     5    2    3 1
     6    3    8 ar
     7    3    4 ar
     8    4    5 ar
     9    4   28 1
    10    5    6 ar
    11    5   29 1
    12    6    7 ar
    13    6    9 1
    14    7    8 ar
    15    7   30 1
    16    8   31 1
    17    9   10 am
    18    9   32 1
    19   10   11 2
    20   10   12 1
    21   12   13 1
    22   12   33 1
    23   12   34 1
    24   13   14 1
    25   14   15 ar
    26   14   23 ar
    27   15   16 ar
    28   15   24 1
    29   16   17 ar
    30   17   18 ar
    31   17   22 ar
    32   18   19 ar
    33   18   35 1
    34   19   20 ar
    35   19   36 1
    36   20   21 ar
    37   20   37 1
    38   21   22 ar
    39   21   38 1
    40   22   23 ar
    41   24   39 1
@<TRIPOS>MOLECULE
ZINC04116118
   38    40     0     0     0
SMALL
USER_CHARGES

@<TRIPOS>ATOM
      1 C1         -0.1562    2.4294   -2.0256 C.2       1 <0>        -0.1838
      2 C2         -0.7416    1.5850   -1.2129 C.2       1 <0>        -0.1792
      3 C3         -0.0127    1.0858    0.0080 C.3       1 <0>        -0.2201
      4 S1         -0.8599    1.6695    1.4972 S.3       1 <0>         0.2393
      5 C4          0.1742    0.9607    2.7352 C.2       1 <0>         0.0273
      6 N1         -0.1189    1.1704    4.0487 N.am      1 <0>        -0.2746
      7 H1         -0.9119    1.7244    4.3022 H         1 <0>         0.2635
      8 C5          0.6619    0.6298    5.0080 C.2       1 <0>         0.3487
      9 O1          0.4081    0.8063    6.1889 O.2       1 <0>        -0.3491
     10 C6          1.7716   -0.1326    4.6233 C.2       1 <0>        -0.2989
     11 C7          2.0291   -0.3122    3.2781 C.2       1 <0>         0.2255
     12 N2          1.2172    0.2438    2.3709 N.2       1 <0>        -0.2683
     13 O2          3.0893   -1.0409    2.8674 O.3       1 <0>        -0.1305
     14 C8          4.1074   -1.2805    3.7117 C.2       1 <0>         0.2636
     15 C9          3.9717   -1.1575    5.0530 C.2       1 <0>        -0.2531
     16 C10         2.6636   -0.7433    5.6683 C.3       1 <0>         0.0862
     17 H2          2.8495   -0.0115    6.4543 H         1 <0>         0.1266
     18 C11         1.9853   -1.9516    6.2608 C.ar      1 <0>        -0.0693
     19 C12         1.6468   -3.0203    5.4520 C.ar      1 <0>        -0.1179
     20 C13         1.0285   -4.1304    5.9963 C.ar      1 <0>        -0.1316
     21 C14         0.7406   -4.1681    7.3478 C.ar      1 <0>        -0.1281
     22 C15         1.0743   -3.0972    8.1556 C.ar      1 <0>        -0.1281
     23 C16         1.6965   -1.9888    7.6121 C.ar      1 <0>        -0.1000
     24 C17         5.0936   -1.4271    5.9010 C.1       1 <0>        -0.0615
     25 N3          5.9837   -1.6409    6.5738 N.1       1 <0>        -0.0714
     26 N4          5.3217   -1.6620    3.1981 N.pl3     1 <0>        -0.3857
     27 H3          0.8488    2.7677   -1.8207 H         1 <0>         0.1182
     28 H4         -0.6785    2.7871   -2.9006 H         1 <0>         0.1229
     29 H5         -1.7465    1.2467   -1.4178 H         1 <0>         0.1368
     30 H6          0.0021   -0.0041    0.0020 H         1 <0>         0.1328
     31 H7          1.0099    1.4631    0.0003 H         1 <0>         0.1268
     32 H8          1.8684   -2.9893    4.3954 H         1 <0>         0.1243
     33 H9          0.7681   -4.9672    5.3651 H         1 <0>         0.1254
     34 H10         0.2551   -5.0343    7.7725 H         1 <0>         0.1257
     35 H11         0.8493   -3.1266    9.2115 H         1 <0>         0.1290
     36 H12         1.9572   -1.1522    8.2433 H         1 <0>         0.1375
     37 H13         5.4352   -1.7550    2.2393 H         1 <0>         0.2303
     38 H14         6.0664   -1.8386    3.7940 H         1 <0>         0.2610
@<TRIPOS>BOND
     1    1    2 2
     2    1   27 1
     3    1   28 1
     4    2    3 1
     5    2   29 1
     6    3    4 1
     7    3   30 1
     8    3   31 1
     9    4    5 1
    10    5   12 2
    11    5    6 1
    12    6    7 1
    13    6    8 am
    14    8    9 2
    15    8   10 1
    16   10   16 1
    17   10   11 2
    18   11   12 1
    19   11   13 1
    20   13   14 1
    21   14   15 2
    22   14   26 1
    23   15   16 1
    24   15   24 1
    25   16   17 1
    26   16   18 1
    27   18   23 ar
    28   18   19 ar
    29   19   20 ar
    30   19   32 1
    31   20   21 ar
    32   20   33 1
    33   21   22 ar
    34   21   34 1
    35   22   23 ar
    36   22   35 1
    37   23   36 1
    38   24   25 3
    39   26   37 1
    40   26   38 1
@<TRIPOS>MOLECULE
ZINC04116118
   38    40     0     0     0
SMALL
USER_CHARGES

@<TRIPOS>ATOM
      1 C1         -0.1546    2.4309   -2.0255 C.2       1 <0>        -0.1801
      2 C2         -0.7404    1.5867   -1.2129 C.2       1 <0>        -0.1689
      3 C3         -0.0118    1.0871    0.0080 C.3       1 <0>        -0.2851
      4 S1         -0.8588    1.6710    1.4972 S.3       1 <0>         0.3182
      5 C4          0.1748    0.9616    2.7352 C.2       1 <0>        -0.0156
      6 N1         -0.1182    1.1714    4.0487 N.2       1 <0>        -0.2425
      7 H1          1.4035    0.1085    1.3978 H         1 <0>         0.2506
      8 C5          0.6622    0.6303    5.0080 C.2       1 <0>         0.3149
      9 O1          0.4084    0.8068    6.1889 O.2       1 <0>        -0.3099
     10 C6          1.7651   -0.1419    4.6233 C.2       1 <0>        -0.2616
     11 C7          2.0228   -0.3213    3.2781 C.2       1 <0>         0.1782
     12 N2          1.2145    0.2398    2.3709 N.pl3     1 <0>        -0.2207
     13 O2          3.0799   -1.0544    2.8675 O.3       1 <0>        -0.1674
     14 C8          4.0963   -1.2996    3.7123 C.2       1 <0>         0.2590
     15 C9          3.9602   -1.1773    5.0536 C.2       1 <0>        -0.2363
     16 C10         2.6536   -0.7578    5.6684 C.3       1 <0>         0.0785
     17 H2          2.8422   -0.0276    6.4553 H         1 <0>         0.1351
     18 C11         1.9693   -1.9635    6.2591 C.ar      1 <0>        -0.0683
     19 C12         1.6264   -3.0298    5.4490 C.ar      1 <0>        -0.1193
     20 C13         1.0026   -4.1376    5.9917 C.ar      1 <0>        -0.1313
     21 C14         0.7136   -4.1754    7.3429 C.ar      1 <0>        -0.1255
     22 C15         1.0516   -3.1069    8.1521 C.ar      1 <0>        -0.1257
     23 C16         1.6793   -2.0008    7.6102 C.ar      1 <0>        -0.0951
     24 C17         5.0802   -1.4530    5.9021 C.1       1 <0>        -0.0653
     25 N3          5.9688   -1.6716    6.5754 N.1       1 <0>        -0.0626
     26 N4          5.3092   -1.6862    3.1992 N.pl3     1 <0>        -0.3887
     27 H3          0.8506    2.7687   -1.8205 H         1 <0>         0.1160
     28 H4         -0.6766    2.7890   -2.9005 H         1 <0>         0.1287
     29 H5         -1.7455    1.2489   -1.4179 H         1 <0>         0.1448
     30 H6          0.0025   -0.0028    0.0019 H         1 <0>         0.1101
     31 H7          1.0110    1.4639    0.0004 H         1 <0>         0.1044
     32 H8          1.8490   -2.9988    4.3926 H         1 <0>         0.1185
     33 H9          0.7388   -4.9726    5.3594 H         1 <0>         0.1245
     34 H10         0.2238   -5.0398    7.7664 H         1 <0>         0.1266
     35 H11         0.8257   -3.1363    9.2078 H         1 <0>         0.1307
     36 H12         1.9434   -1.1660    8.2424 H         1 <0>         0.1397
     37 H13         5.4230   -1.7787    2.2404 H         1 <0>         0.2271
     38 H14         6.0527   -1.8668    3.7954 H         1 <0>         0.2638
@<TRIPOS>BOND
     1    1    2 2
     2    1   27 1
     3    1   28 1
     4    2    3 1
     5    2   29 1
     6    3    4 1
     7    3   30 1
     8    3   31 1
     9    4    5 1
    10    5   12 1
    11    5    6 2
    12    6    8 1
    13    7   12 1
    14    8    9 2
    15    8   10 1
    16   10   16 1
    17   10   11 2
    18   11   13 1
    19   11   12 1
    20   13   14 1
    21   14   15 2
    22   14   26 1
    23   15   16 1
    24   15   24 1
    25   16   17 1
    26   16   18 1
    27   18   23 ar
    28   18   19 ar
    29   19   20 ar
    30   19   32 1
    31   20   21 ar
    32   20   33 1
    33   21   22 ar
    34   21   34 1
    35   22   23 ar
    36   22   35 1
    37   23   36 1
    38   24   25 3
    39   26   37 1
    40   26   38 1
@<TRIPOS>MOLECULE
ZINC04116118
   38    40     0     0     0
SMALL
USER_CHARGES

@<TRIPOS>ATOM
      1 C1         -0.1541    2.4322   -2.0251 C.2       1 <0>        -0.1948
      2 C2         -0.7398    1.5876   -1.2129 C.2       1 <0>        -0.1698
      3 C3         -0.0113    1.0878    0.0080 C.3       1 <0>        -0.2454
      4 S1         -0.8588    1.6711    1.4972 S.3       1 <0>         0.2988
      5 C4          0.1748    0.9616    2.7352 C.ar      1 <0>         0.0051
      6 N1         -0.1194    1.1697    4.0487 N.ar      1 <0>        -0.2602
      7 H1          1.0856    0.3308    6.7501 H         1 <0>         0.2803
      8 C5          0.6614    0.6291    5.0080 C.ar      1 <0>         0.2716
      9 O1          0.4047    0.8013    6.1889 O.3       1 <0>        -0.1688
     10 C6          1.7666   -0.1399    4.6233 C.ar      1 <0>        -0.3980
     11 C7          2.0248   -0.3185    3.2781 C.ar      1 <0>         0.2585
     12 N2          1.2156    0.2415    2.3709 N.ar      1 <0>        -0.2910
     13 O2          3.0827   -1.0504    2.8674 O.3       1 <0>        -0.1300
     14 C8          4.0995   -1.2942    3.7124 C.2       1 <0>         0.2807
     15 C9          3.9629   -1.1726    5.0537 C.2       1 <0>        -0.2642
     16 C10         2.6559   -0.7544    5.6683 C.3       1 <0>         0.0695
     17 H2          2.8436   -0.0240    6.4552 H         1 <0>         0.0962
     18 C11         1.9734   -1.9611    6.2592 C.ar      1 <0>        -0.0944
     19 C12         1.6321   -3.0280    5.4491 C.ar      1 <0>        -0.1019
     20 C13         1.0099   -4.1366    5.9919 C.ar      1 <0>        -0.1211
     21 C14         0.7209   -4.1748    7.3431 C.ar      1 <0>        -0.1218
     22 C15         1.0574   -3.1057    8.1522 C.ar      1 <0>        -0.1180
     23 C16         1.6835   -1.9988    7.6102 C.ar      1 <0>        -0.1361
     24 C17         5.0831   -1.4471    5.9024 C.1       1 <0>        -0.0648
     25 N3          5.9718   -1.6647    6.5758 N.1       1 <0>        -0.0687
     26 N4          5.3130   -1.6790    3.1994 N.pl3     1 <0>        -0.3806
     27 H3          0.8509    2.7703   -1.8198 H         1 <0>         0.1164
     28 H4         -0.6761    2.7903   -2.9001 H         1 <0>         0.1189
     29 H5         -1.7447    1.2495   -1.4182 H         1 <0>         0.1341
     30 H6          0.0033   -0.0021    0.0016 H         1 <0>         0.1261
     31 H7          1.0113    1.4650    0.0007 H         1 <0>         0.1209
     32 H8          1.8545   -2.9966    4.3927 H         1 <0>         0.1339
     33 H9          0.7473   -4.9720    5.3596 H         1 <0>         0.1332
     34 H10         0.2324   -5.0398    7.7666 H         1 <0>         0.1325
     35 H11         0.8316   -3.1354    9.2079 H         1 <0>         0.1333
     36 H12         1.9464   -1.1636    8.2424 H         1 <0>         0.1242
     37 H13         5.4271   -1.7711    2.2406 H         1 <0>         0.2340
     38 H14         6.0565   -1.8589    3.7958 H         1 <0>         0.2613
@<TRIPOS>BOND
     1    1    2 2
     2    1   27 1
     3    1   28 1
     4    2    3 1
     5    2   29 1
     6    3    4 1
     7    3   30 1
     8    3   31 1
     9    4    5 1
    10    5   12 ar
    11    5    6 ar
    12    6    8 ar
    13    7    9 1
    14    8    9 1
    15    8   10 ar
    16   10   16 1
    17   10   11 ar
    18   11   13 1
    19   11   12 ar
    20   13   14 1
    21   14   15 2
    22   14   26 1
    23   15   16 1
    24   15   24 1
    25   16   17 1
    26   16   18 1
    27   18   23 ar
    28   18   19 ar
    29   19   20 ar
    30   19   32 1
    31   20   21 ar
    32   20   33 1
    33   21   22 ar
    34   21   34 1
    35   22   23 ar
    36   22   35 1
    37   23   36 1
    38   24   25 3
    39   26   37 1
    40   26   38 1
@<TRIPOS>MOLECULE
ZINC04116896
   39    42     0     0     0
SMALL
USER_CHARGES

@<TRIPOS>ATOM
      1 C1        -10.1218    4.9765    0.1258 C.3       1 <0>        -0.0579
      2 N1         -9.6569    3.5872    0.1146 N.pl3     1 <0>        -0.1772
      3 C2        -10.4847    2.4763    0.1177 C.ar      1 <0>         0.0532
      4 C3        -11.8690    2.3413    0.1312 C.ar      1 <0>        -0.1511
      5 C4        -12.4406    1.0869    0.1314 C.ar      1 <0>        -0.0921
      6 C5        -11.6465   -0.0495    0.1181 C.ar      1 <0>        -0.1567
      7 C6        -10.2730    0.0636    0.1046 C.ar      1 <0>        -0.0578
      8 C7         -9.6822    1.3252    0.1043 C.ar      1 <0>        -0.0612
      9 C8         -8.2854    1.7926    0.0926 C.ar      1 <0>        -0.1779
     10 C9         -8.3392    3.2020    0.0997 C.ar      1 <0>         0.1527
     11 N2         -7.1942    3.8774    0.0966 N.ar      1 <0>        -0.2838
     12 C10        -6.0476    3.2106    0.0770 C.ar      1 <0>         0.2017
     13 N3         -6.0224    1.8819    0.0705 N.ar      1 <0>        -0.1314
     14 N4         -7.1075    1.1861    0.0780 N.ar      1 <0>         0.0592
     15 N5         -4.8544    3.9121    0.0689 N.pl3     1 <0>        -0.2703
     16 N6         -3.6357    3.2213    0.0540 N.2       1 <0>         0.0382
     17 C11        -2.5165    3.8793    0.0465 C.2       1 <0>        -0.1207
     18 C12        -1.2348    3.1528    0.0308 C.ar      1 <0>        -0.0837
     19 C13        -0.0288    3.8581    0.0226 C.ar      1 <0>        -0.0839
     20 C14         1.1677    3.1749    0.0075 C.ar      1 <0>        -0.1719
     21 C15         1.1796    1.7853    0.0004 C.ar      1 <0>         0.0977
     22 C16        -0.0126    1.0758    0.0080 C.ar      1 <0>        -0.1915
     23 C17        -1.2205    1.7509    0.0174 C.ar      1 <0>         0.1260
     24 O1         -2.3885    1.0576    0.0191 O.3       1 <0>        -0.2634
     25 O2          2.3634    1.1188   -0.0145 O.3       1 <0>        -0.2918
     26 H1        -10.2269    5.3162    1.1562 H         1 <0>         0.0856
     27 H2         -9.3983    5.6059   -0.3923 H         1 <0>         0.1070
     28 H3        -11.0861    5.0409   -0.3782 H         1 <0>         0.0910
     29 H4        -12.4967    3.2202    0.1416 H         1 <0>         0.1317
     30 H5        -13.5160    0.9885    0.1423 H         1 <0>         0.1353
     31 H6        -12.1060   -1.0269    0.1180 H         1 <0>         0.1366
     32 H7         -9.6566   -0.8231    0.0946 H         1 <0>         0.1481
     33 H8         -4.8621    4.8821    0.0736 H         1 <0>         0.2320
     34 H9         -2.5250    4.9593    0.0516 H         1 <0>         0.1173
     35 H10        -0.0344    4.9381    0.0284 H         1 <0>         0.1355
     36 H11         2.0994    3.7211    0.0015 H         1 <0>         0.1432
     37 H12         0.0021   -0.0041    0.0020 H         1 <0>         0.1549
     38 H13        -2.7225    0.8520    0.9030 H         1 <0>         0.2448
     39 H14         2.6977    0.9306   -0.9022 H         1 <0>         0.2324
@<TRIPOS>BOND
     1    1    2 1
     2    1   26 1
     3    1   27 1
     4    1   28 1
     5    2   10 1
     6    2    3 1
     7    3    8 ar
     8    3    4 ar
     9    4    5 ar
    10    4   29 1
    11    5    6 ar
    12    5   30 1
    13    6    7 ar
    14    6   31 1
    15    7    8 ar
    16    7   32 1
    17    8    9 1
    18    9   14 ar
    19    9   10 ar
    20   10   11 ar
    21   11   12 ar
    22   12   13 ar
    23   12   15 1
    24   13   14 ar
    25   15   16 1
    26   15   33 1
    27   16   17 2
    28   17   18 1
    29   17   34 1
    30   18   23 ar
    31   18   19 ar
    32   19   20 ar
    33   19   35 1
    34   20   21 ar
    35   20   36 1
    36   21   22 ar
    37   21   25 1
    38   22   23 ar
    39   22   37 1
    40   23   24 1
    41   24   38 1
    42   25   39 1
@<TRIPOS>MOLECULE
ZINC04118140
   42    44     0     0     0
SMALL
USER_CHARGES

@<TRIPOS>ATOM
      1 C1          2.3676    4.9052   -0.7823 C.3       1 <0>        -0.1722
      2 C2          2.7112    3.4507   -0.5888 C.2       1 <0>         0.1115
      3 C3          1.8011    2.5090   -0.9012 C.2       1 <0>        -0.2918
      4 C4          2.1174    1.1429   -0.7285 C.2       1 <0>         0.1759
      5 C5          3.3662    0.8072   -0.2381 C.2       1 <0>        -0.2460
      6 C6          4.2697    1.8322    0.0686 C.2       1 <0>         0.3517
      7 O1          5.3765    1.5583    0.5028 O.2       1 <0>        -0.2895
      8 O2          3.9199    3.1170   -0.1138 O.3       1 <0>        -0.1631
      9 C7          3.7479   -0.6367   -0.0368 C.3       1 <0>         0.0728
     10 C8          4.7433   -1.0450   -1.0920 C.ar      1 <0>        -0.0780
     11 C9          5.5358   -0.0889   -1.7000 C.ar      1 <0>        -0.0602
     12 C10         6.4530   -0.4613   -2.6636 C.ar      1 <0>        -0.1505
     13 C11         6.5706   -1.7944   -3.0291 C.ar      1 <0>         0.0697
     14 C12         5.7703   -2.7510   -2.4217 C.ar      1 <0>        -0.1596
     15 C13         4.8586   -2.3742   -1.4546 C.ar      1 <0>        -0.1170
     16 O3          7.4686   -2.1626   -3.9804 O.3       1 <0>        -0.2920
     17 C14         4.3638   -0.8079    1.3279 C.2       1 <0>        -0.2422
     18 C15         3.5704   -1.0703    2.4299 C.2       1 <0>         0.1632
     19 C16         4.1901   -1.2296    3.6896 C.2       1 <0>        -0.3019
     20 C17         5.5271   -1.1128    3.7965 C.2       1 <0>         0.1187
     21 O4          6.2889   -0.8528    2.7241 O.3       1 <0>        -0.1625
     22 C18         5.7488   -0.6984    1.5030 C.2       1 <0>         0.3662
     23 O5          6.4669   -0.4628    0.5452 O.2       1 <0>        -0.2703
     24 C19         6.1790   -1.2778    5.1451 C.3       1 <0>        -0.1739
     25 O6          2.2269   -1.1780    2.3031 O.3       1 <0>        -0.2826
     26 O7          1.2155    0.1814   -1.0365 O.3       1 <0>        -0.2845
     27 H1          1.9147    5.2958    0.1290 H         1 <0>         0.1089
     28 H2          3.2749    5.4662   -1.0063 H         1 <0>         0.1075
     29 H3          1.6648    5.0056   -1.6093 H         1 <0>         0.1024
     30 H4          0.8324    2.7970   -1.2823 H         1 <0>         0.1607
     31 H5          2.8585   -1.2619   -0.1150 H         1 <0>         0.1145
     32 H6          5.4407    0.9494   -1.4182 H         1 <0>         0.1451
     33 H7          7.0748    0.2853   -3.1350 H         1 <0>         0.1382
     34 H8          5.8598   -3.7894   -2.7048 H         1 <0>         0.1336
     35 H9          4.2357   -3.1186   -0.9811 H         1 <0>         0.1218
     36 H10         7.1147   -2.1523   -4.8803 H         1 <0>         0.2195
     37 H11         3.5929   -1.4397    4.5645 H         1 <0>         0.1572
     38 H12         7.2572   -1.1521    5.0453 H         1 <0>         0.1080
     39 H13         5.7878   -0.5273    5.8320 H         1 <0>         0.1055
     40 H14         5.9636   -2.2732    5.5335 H         1 <0>         0.1019
     41 H15         1.9199   -2.0765    2.1198 H         1 <0>         0.2393
     42 H16         1.2686   -0.1293   -1.9507 H         1 <0>         0.2441
@<TRIPOS>BOND
     1    1    2 1
     2    1   27 1
     3    1   28 1
     4    1   29 1
     5    2    8 1
     6    2    3 2
     7    3    4 1
     8    3   30 1
     9    4    5 2
    10    4   26 1
    11    5    6 1
    12    5    9 1
    13    6    7 2
    14    6    8 1
    15    9   10 1
    16    9   17 1
    17    9   31 1
    18   10   15 ar
    19   10   11 ar
    20   11   12 ar
    21   11   32 1
    22   12   13 ar
    23   12   33 1
    24   13   14 ar
    25   13   16 1
    26   14   15 ar
    27   14   34 1
    28   15   35 1
    29   16   36 1
    30   17   22 1
    31   17   18 2
    32   18   19 1
    33   18   25 1
    34   19   20 2
    35   19   37 1
    36   20   21 1
    37   20   24 1
    38   21   22 1
    39   22   23 2
    40   24   38 1
    41   24   39 1
    42   24   40 1
    43   25   41 1
    44   26   42 1
@<TRIPOS>MOLECULE
ZINC04121320
   40    42     0     0     0
SMALL
USER_CHARGES

@<TRIPOS>ATOM
      1 C1          4.7760    0.1609   -0.0422 C.3       1 <0>        -0.0677
      2 O1          3.5992   -0.6497   -0.0353 O.3       1 <0>        -0.1870
      3 C2          2.4039   -0.0022   -0.0209 C.ar      1 <0>         0.1386
      4 C3          2.3742    1.3729   -0.0132 C.ar      1 <0>        -0.2228
      5 C4          1.1756    2.0703    0.0020 C.ar      1 <0>        -0.0893
      6 C5         -0.0165    1.3692    0.0096 C.ar      1 <0>        -0.1142
      7 C6          0.0021   -0.0041    0.0020 C.ar      1 <0>        -0.2209
      8 C7          1.2003   -0.7507   -0.0134 C.ar      1 <0>         0.0023
      9 N1          1.0534   -2.0950   -0.0188 N.2       1 <0>        -0.2413
     10 C8         -0.1244   -2.6751   -0.0103 C.2       1 <0>         0.0254
     11 S1         -1.2375   -1.2770    0.0076 S.3       1 <0>         0.2076
     12 N2         -0.4263   -4.0227   -0.0143 N.pl3     1 <0>        -0.2062
     13 N3         -1.7633   -4.4411   -0.0034 N.am      1 <0>        -0.2686
     14 C9         -2.0580   -5.7563   -0.0072 C.2       1 <0>         0.3463
     15 O2         -1.1639   -6.5792   -0.0201 O.2       1 <0>        -0.3541
     16 C10        -3.4708   -6.1984    0.0043 C.ar      1 <0>        -0.0941
     17 C11        -4.4974   -5.2532    0.0248 C.ar      1 <0>        -0.1241
     18 C12        -5.8128   -5.6645    0.0298 C.ar      1 <0>        -0.0857
     19 C13        -6.1181   -7.0267    0.0253 C.ar      1 <0>        -0.0854
     20 C14        -5.0909   -7.9720    0.0105 C.ar      1 <0>        -0.0751
     21 C15        -3.7758   -7.5602    0.0003 C.ar      1 <0>        -0.0781
     22 C16        -7.5298   -7.4684    0.0358 C.2       1 <0>         0.3446
     23 O3         -7.7953   -8.6535    0.0316 O.2       1 <0>        -0.3512
     24 O4         -8.5208   -6.5563    0.0501 O.3       1 <0>        -0.2669
     25 C17        -9.8819   -7.0618    0.0598 C.3       1 <0>        -0.0509
     26 H1          5.6581   -0.4793   -0.0537 H         1 <0>         0.1121
     27 H2          4.7755    0.7947   -0.9290 H         1 <0>         0.0673
     28 H3          4.7921    0.7857    0.8508 H         1 <0>         0.0673
     29 H4          3.3045    1.9215   -0.0195 H         1 <0>         0.1406
     30 H5          1.1731    3.1503    0.0081 H         1 <0>         0.1381
     31 H6         -0.9576    1.8991    0.0169 H         1 <0>         0.1380
     32 H7          0.2874   -4.6796   -0.0246 H         1 <0>         0.3036
     33 H8         -2.4770   -3.7842    0.0069 H         1 <0>         0.2575
     34 H9         -4.2611   -4.1994    0.0327 H         1 <0>         0.1306
     35 H10        -6.6073   -4.9330    0.0412 H         1 <0>         0.1554
     36 H11        -5.3269   -9.0259    0.0067 H         1 <0>         0.1654
     37 H12        -2.9811   -8.2914   -0.0112 H         1 <0>         0.1673
     38 H13       -10.0518   -7.6650   -0.8321 H         1 <0>         0.0850
     39 H14       -10.0354   -7.6751    0.9477 H         1 <0>         0.0850
     40 H15       -10.5802   -6.2250    0.0709 H         1 <0>         0.1056
@<TRIPOS>BOND
     1    1    2 1
     2    1   26 1
     3    1   27 1
     4    1   28 1
     5    2    3 1
     6    3    8 ar
     7    3    4 ar
     8    4    5 ar
     9    4   29 1
    10    5    6 ar
    11    5   30 1
    12    6    7 ar
    13    6   31 1
    14    7   11 1
    15    7    8 ar
    16    8    9 1
    17    9   10 2
    18   10   11 1
    19   10   12 1
    20   12   13 1
    21   12   32 1
    22   13   14 am
    23   13   33 1
    24   14   15 2
    25   14   16 1
    26   16   21 ar
    27   16   17 ar
    28   17   18 ar
    29   17   34 1
    30   18   19 ar
    31   18   35 1
    32   19   20 ar
    33   19   22 1
    34   20   21 ar
    35   20   36 1
    36   21   37 1
    37   22   23 2
    38   22   24 1
    39   24   25 1
    40   25   38 1
    41   25   39 1
    42   25   40 1
@<TRIPOS>MOLECULE
ZINC04123400
   49    51     0     0     0
SMALL
USER_CHARGES

@<TRIPOS>ATOM
      1 C1          7.5101   -3.4520   -0.1825 C.3       1 <0>        -0.2023
      2 C2          6.1601   -2.7334   -0.2278 C.3       1 <0>        -0.0624
      3 C3          5.1699   -3.4471    0.6957 C.3       1 <0>        -0.1860
      4 C4          3.8503   -2.7205    0.6720 C.2       1 <0>         0.3005
      5 O1          2.8192   -3.3352    0.8525 O.2       1 <0>        -0.3359
      6 C5          3.8065   -1.3237    0.4398 C.2       1 <0>        -0.4449
      7 C6          2.5821   -0.6668    0.4232 C.2       1 <0>         0.1636
      8 N1          2.5179    0.6276    0.0618 N.pl3     1 <0>        -0.2207
      9 C7          1.2759    1.2631   -0.0465 C.ar      1 <0>        -0.0540
     10 C8          0.1147    0.5617    0.2178 C.ar      1 <0>        -0.0671
     11 C9         -1.1248    1.1992    0.1028 C.ar      1 <0>        -0.1791
     12 C10        -1.1844    2.5467   -0.2693 C.ar      1 <0>        -0.0638
     13 C11        -0.0255    3.2415   -0.5311 C.ar      1 <0>        -0.2043
     14 C12         1.2085    2.6086   -0.4227 C.ar      1 <0>         0.1303
     15 N2          2.3769    3.3146   -0.6891 N.pl3     1 <0>        -0.4082
     16 C13        -2.3664    0.4539    0.3781 C.2       1 <0>         0.3152
     17 O2         -2.3469   -0.5048    1.1260 O.2       1 <0>        -0.2878
     18 C14        -3.6348    0.8718   -0.2547 C.ar      1 <0>        -0.1481
     19 C15        -4.8559    0.4515    0.2771 C.ar      1 <0>        -0.0690
     20 C16        -6.0361    0.8497   -0.3154 C.ar      1 <0>        -0.1412
     21 C17        -6.0119    1.6550   -1.4405 C.ar      1 <0>        -0.1018
     22 C18        -4.8054    2.0704   -1.9761 C.ar      1 <0>        -0.1432
     23 C19        -3.6178    1.6841   -1.3906 C.ar      1 <0>        -0.1013
     24 C20         4.9988   -0.5913    0.2186 C.2       1 <0>         0.3150
     25 O3          4.9439    0.6040    0.0140 O.2       1 <0>        -0.3884
     26 C21         6.3349   -1.2871    0.2417 C.3       1 <0>        -0.1833
     27 C22         5.6226   -2.7453   -1.6602 C.3       1 <0>        -0.2085
     28 H1          7.3841   -4.4831   -0.5129 H         1 <0>         0.0802
     29 H2          8.2147   -2.9432   -0.8403 H         1 <0>         0.0776
     30 H3          7.8932   -3.4416    0.8379 H         1 <0>         0.0751
     31 H4          5.5302   -3.4548    1.6285 H         1 <0>         0.1024
     32 H5          5.0268   -4.4719    0.3531 H         1 <0>         0.1133
     33 H6          1.6820   -1.1953    0.7005 H         1 <0>         0.1838
     34 H7          3.3326    1.1203   -0.1238 H         1 <0>         0.2841
     35 H8          0.1642   -0.4774    0.5080 H         1 <0>         0.1593
     36 H9         -2.1408    3.0412   -0.3545 H         1 <0>         0.1486
     37 H10        -0.0742    4.2805   -0.8218 H         1 <0>         0.1400
     38 H11         3.2377    2.8738   -0.6140 H         1 <0>         0.2317
     39 H12         2.3310    4.2477   -0.9501 H         1 <0>         0.2287
     40 H13        -4.8761   -0.1807    1.1525 H         1 <0>         0.1518
     41 H14        -6.9812    0.5287    0.0972 H         1 <0>         0.1357
     42 H15        -6.9389    1.9604   -1.9030 H         1 <0>         0.1316
     43 H16        -4.7937    2.6983   -2.8548 H         1 <0>         0.1325
     44 H17        -2.6769    2.0087   -1.8098 H         1 <0>         0.1426
     45 H18         6.7013   -1.2807    1.1721 H         1 <0>         0.1050
     46 H19         7.0240   -0.7692   -0.4253 H         1 <0>         0.1108
     47 H20         4.6617   -2.2317   -1.6920 H         1 <0>         0.0855
     48 H21         6.3283   -2.2369   -2.3173 H         1 <0>         0.0760
     49 H22         5.4950   -3.7758   -1.9918 H         1 <0>         0.0803
@<TRIPOS>BOND
     1    1    2 1
     2    1   28 1
     3    1   29 1
     4    1   30 1
     5    2   26 1
     6    2    3 1
     7    2   27 1
     8    3    4 1
     9    3   31 1
    10    3   32 1
    11    4    5 2
    12    4    6 1
    13    6    7 2
    14    6   24 1
    15    7    8 1
    16    7   33 1
    17    8    9 1
    18    8   34 1
    19    9   14 ar
    20    9   10 ar
    21   10   11 ar
    22   10   35 1
    23   11   12 ar
    24   11   16 1
    25   12   13 ar
    26   12   36 1
    27   13   14 ar
    28   13   37 1
    29   14   15 1
    30   15   38 1
    31   15   39 1
    32   16   17 2
    33   16   18 1
    34   18   23 ar
    35   18   19 ar
    36   19   20 ar
    37   19   40 1
    38   20   21 ar
    39   20   41 1
    40   21   22 ar
    41   21   42 1
    42   22   23 ar
    43   22   43 1
    44   23   44 1
    45   24   25 2
    46   24   26 1
    47   26   45 1
    48   26   46 1
    49   27   47 1
    50   27   48 1
    51   27   49 1
@<TRIPOS>MOLECULE
ZINC04123815
   39    41     0     0     0
SMALL
USER_CHARGES

@<TRIPOS>ATOM
      1 C1          1.9246   -0.0933   -1.3274 C.3       1 <0>        -0.1814
      2 C2          0.7573    0.8259   -1.0754 C.ar      1 <0>        -0.0381
      3 C3         -0.5169    0.3019   -0.9475 C.ar      1 <0>        -0.1470
      4 C4         -1.5907    1.1381   -0.7228 C.ar      1 <0>        -0.0737
      5 C5         -1.3880    2.5153   -0.6136 C.ar      1 <0>        -0.1230
      6 C6         -0.0995    3.0374   -0.7437 C.ar      1 <0>        -0.0562
      7 C7          0.9646    2.1902   -0.9734 C.ar      1 <0>        -0.1448
      8 C8         -2.5323    3.4165   -0.3670 C.2       1 <0>         0.3553
      9 O1         -2.3535    4.6145   -0.2770 O.2       1 <0>        -0.3387
     10 O2         -3.7741    2.9095   -0.2420 O.3       1 <0>        -0.2615
     11 C9         -4.8504    3.8538   -0.0008 C.3       1 <0>         0.1971
     12 H1         -4.5756    4.5427    0.7980 H         1 <0>         0.1462
     13 C10        -6.1229    3.1180    0.3565 C.2       1 <0>         0.0780
     14 C11        -7.0240    3.4418   -0.5977 C.2       1 <0>        -0.2797
     15 C12        -6.4341    4.3177   -1.5273 C.2       1 <0>         0.3657
     16 O3         -7.0049    4.7797   -2.4980 O.2       1 <0>        -0.2751
     17 O4         -5.1541    4.5772   -1.1999 O.3       1 <0>        -0.2134
     18 Cl1        -8.6599    2.8648   -0.6656 Cl        1 <0>         0.0380
     19 N1         -6.3216    2.2923    1.4284 N.pl3     1 <0>        -0.2605
     20 C13        -7.5262    1.5920    1.5584 C.ar      1 <0>         0.0104
     21 C14        -8.5016    2.0423    2.4368 C.ar      1 <0>        -0.1073
     22 C15        -9.6924    1.3520    2.5594 C.ar      1 <0>        -0.1320
     23 C16        -9.9112    0.2064    1.8164 C.ar      1 <0>        -0.1048
     24 C17        -8.9419   -0.2516    0.9433 C.ar      1 <0>        -0.1487
     25 C18        -7.7474    0.4374    0.8104 C.ar      1 <0>         0.0862
     26 O5         -6.7930   -0.0122   -0.0475 O.3       1 <0>        -0.2768
     27 H2          2.0641   -0.2173   -2.4013 H         1 <0>         0.0942
     28 H3          2.8262    0.3364   -0.8911 H         1 <0>         0.0864
     29 H4          1.7276   -1.0639   -0.8722 H         1 <0>         0.0853
     30 H5         -0.6717   -0.7639   -1.0282 H         1 <0>         0.1368
     31 H6         -2.5853    0.7282   -0.6277 H         1 <0>         0.1461
     32 H7          0.0635    4.1021   -0.6650 H         1 <0>         0.1569
     33 H8          1.9617    2.5926   -1.0742 H         1 <0>         0.1403
     34 H9         -5.6275    2.1921    2.0986 H         1 <0>         0.2449
     35 H10        -8.3316    2.9342    3.0217 H         1 <0>         0.1420
     36 H11       -10.4524    1.7057    3.2403 H         1 <0>         0.1390
     37 H12       -10.8417   -0.3321    1.9185 H         1 <0>         0.1382
     38 H13        -9.1159   -1.1470    0.3651 H         1 <0>         0.1479
     39 H14        -6.1644   -0.6292    0.3517 H         1 <0>         0.2277
@<TRIPOS>BOND
     1    1    2 1
     2    1   27 1
     3    1   28 1
     4    1   29 1
     5    2    7 ar
     6    2    3 ar
     7    3    4 ar
     8    3   30 1
     9    4    5 ar
    10    4   31 1
    11    5    6 ar
    12    5    8 1
    13    6    7 ar
    14    6   32 1
    15    7   33 1
    16    8    9 2
    17    8   10 1
    18   10   11 1
    19   11   12 1
    20   11   17 1
    21   11   13 1
    22   13   14 2
    23   13   19 1
    24   14   15 1
    25   14   18 1
    26   15   16 2
    27   15   17 1
    28   19   20 1
    29   19   34 1
    30   20   25 ar
    31   20   21 ar
    32   21   22 ar
    33   21   35 1
    34   22   23 ar
    35   22   36 1
    36   23   24 ar
    37   23   37 1
    38   24   25 ar
    39   24   38 1
    40   25   26 1
    41   26   39 1
@<TRIPOS>MOLECULE
ZINC04124245
   45    47     0     0     0
SMALL
USER_CHARGES

@<TRIPOS>ATOM
      1 C1         -7.1015   -0.2177    1.0146 C.3       1 <0>        -0.0706
      2 O1         -6.1418   -0.6111    0.0317 O.3       1 <0>        -0.1764
      3 C2         -4.9552    0.0515    0.0281 C.ar      1 <0>         0.1237
      4 C3         -4.7219    1.0591    0.9527 C.ar      1 <0>        -0.1970
      5 C4         -3.5193    1.7344    0.9523 C.ar      1 <0>        -0.0799
      6 C5         -2.5343    1.4050    0.0210 C.ar      1 <0>        -0.1271
      7 C6         -2.7701    0.3955   -0.9125 C.ar      1 <0>        -0.1583
      8 C7         -3.9754   -0.2820   -0.9044 C.ar      1 <0>         0.0825
      9 O2         -4.2065   -1.2698   -1.8101 O.3       1 <0>        -0.1794
     10 C8         -3.1576   -1.5589   -2.7366 C.3       1 <0>        -0.0689
     11 C9         -1.2428    2.1298    0.0195 C.ar      1 <0>         0.1881
     12 C10        -1.2041    3.5229    0.0326 C.ar      1 <0>        -0.2109
     13 C11         0.0284    4.1695    0.0247 C.ar      1 <0>         0.1770
     14 C12         1.1831    2.1595    0.0024 C.ar      1 <0>         0.2605
     15 C13        -0.0173    1.4278    0.0099 C.ar      1 <0>        -0.1254
     16 C14         0.0021   -0.0041    0.0020 C.1       1 <0>        -0.1070
     17 N1          0.0175   -1.1399   -0.0042 N.1       1 <0>         0.0332
     18 N2          2.3944    1.4899   -0.0128 N.pl3     1 <0>        -0.3640
     19 C15         0.0739    5.6499    0.0333 C.ar      1 <0>        -0.1962
     20 C16        -1.1118    6.3854    0.0429 C.ar      1 <0>        -0.0161
     21 C17        -1.0668    7.7624    0.0571 C.ar      1 <0>        -0.2060
     22 C18         0.1591    8.4194    0.0499 C.ar      1 <0>         0.1783
     23 C19         1.3423    7.6884    0.0341 C.ar      1 <0>        -0.2008
     24 C20         1.3025    6.3113    0.0260 C.ar      1 <0>        -0.0465
     25 N3          0.2019    9.8126    0.0580 N.pl3     1 <0>        -0.3766
     26 H1         -6.6822   -0.3626    2.0103 H         1 <0>         0.0738
     27 H2         -7.3536    0.8336    0.8760 H         1 <0>         0.0715
     28 H3         -8.0009   -0.8242    0.9074 H         1 <0>         0.1287
     29 H4         -5.4837    1.3155    1.6740 H         1 <0>         0.1587
     30 H5         -3.3403    2.5187    1.6729 H         1 <0>         0.1368
     31 H6         -2.0114    0.1413   -1.6379 H         1 <0>         0.1491
     32 H7         -3.4713   -2.3642   -3.4008 H         1 <0>         0.1280
     33 H8         -2.9366   -0.6682   -3.3247 H         1 <0>         0.0647
     34 H9         -2.2650   -1.8648   -2.1910 H         1 <0>         0.0712
     35 H10        -2.1204    4.0945    0.0445 H         1 <0>         0.1942
     36 H11         2.4124    0.5201   -0.0183 H         1 <0>         0.2746
     37 H12         3.2252    1.9905   -0.0181 H         1 <0>         0.2451
     38 H13        -2.0640    5.8757    0.0437 H         1 <0>         0.1442
     39 H14        -1.9843    8.3321    0.0694 H         1 <0>         0.1569
     40 H15         2.2930    8.2008    0.0284 H         1 <0>         0.1539
     41 H16         2.2216    5.7442    0.0137 H         1 <0>         0.1126
     42 H17         1.0564   10.2716    0.0526 H         1 <0>         0.2380
     43 H18        -0.6228   10.3232    0.0690 H         1 <0>         0.2394
     44 N4          1.2362    3.5214    0.0097 N.ar      1 <0>        -0.1800
     45 H19         2.1273    4.0313    0.0042 H         1 <0>         0.3024
@<TRIPOS>BOND
     1    1    2 1
     2    1   26 1
     3    1   27 1
     4    1   28 1
     5    2    3 1
     6    3    8 ar
     7    3    4 ar
     8    4    5 ar
     9    4   29 1
    10    5    6 ar
    11    5   30 1
    12    6    7 ar
    13    6   11 1
    14    7    8 ar
    15    7   31 1
    16    8    9 1
    17    9   10 1
    18   10   32 1
    19   10   33 1
    20   10   34 1
    21   11   15 ar
    22   11   12 ar
    23   12   13 ar
    24   12   35 1
    25   13   19 1
    26   13   44 ar
    27   14   15 ar
    28   14   18 1
    29   14   44 ar
    30   15   16 1
    31   16   17 3
    32   18   36 1
    33   18   37 1
    34   19   24 ar
    35   19   20 ar
    36   20   21 ar
    37   20   38 1
    38   21   22 ar
    39   21   39 1
    40   22   23 ar
    41   22   25 1
    42   23   24 ar
    43   23   40 1
    44   24   41 1
    45   25   42 1
    46   25   43 1
    47   44   45 1
@<TRIPOS>MOLECULE
ZINC04130122
   39    41     0     0     0
SMALL
USER_CHARGES

@<TRIPOS>ATOM
      1 C1          8.0351   -4.4721   -0.0910 C.3       1 <0>        -0.0655
      2 O1          9.1248   -3.5478   -0.0970 O.3       1 <0>        -0.2048
      3 C2          8.8127   -2.2276   -0.0875 C.ar      1 <0>         0.1312
      4 C3          9.8267   -1.2757   -0.0926 C.ar      1 <0>        -0.1756
      5 C4          9.5166    0.0599   -0.0835 C.ar      1 <0>        -0.0254
      6 C5          8.1761    0.4648   -0.0690 C.ar      1 <0>        -0.2021
      7 C6          7.1590   -0.4977   -0.0581 C.ar      1 <0>        -0.0462
      8 C7          7.4798   -1.8307   -0.0732 C.ar      1 <0>        -0.2372
      9 C8          7.8382    1.8940   -0.0593 C.2       1 <0>         0.2858
     10 O2          8.7209    2.7259   -0.0637 O.2       1 <0>        -0.2821
     11 C9          6.3948    2.3269   -0.0438 C.3       1 <0>        -0.3081
     12 S1          6.3073    4.1348   -0.0346 S.3       1 <0>         0.2929
     13 C10         4.5593    4.3563   -0.0172 C.2       1 <0>        -0.1344
     14 N1          3.9093    5.5412   -0.0052 N.pl3     1 <0>        -0.1845
     15 H1          4.3115    6.4239   -0.0050 H         1 <0>         0.2811
     16 N2          2.5371    5.2433    0.0008 N.2       1 <0>        -0.0818
     17 C11         2.4299    3.9337    0.0005 C.2       1 <0>         0.0056
     18 N3          3.6591    3.3977   -0.0137 N.2       1 <0>        -0.2559
     19 C12         1.1569    3.1725    0.0081 C.ar      1 <0>        -0.0321
     20 C13         1.1745    1.7796    0.0004 C.ar      1 <0>        -0.0787
     21 C14        -0.0126    1.0758    0.0080 C.ar      1 <0>        -0.1499
     22 C15        -1.2217    1.7489    0.0174 C.ar      1 <0>        -0.1028
     23 C16        -1.2506    3.1304    0.0308 C.ar      1 <0>        -0.1628
     24 C17        -0.0661    3.8496    0.0234 C.ar      1 <0>         0.1027
     25 O3         -0.0932    5.2078    0.0314 O.3       1 <0>        -0.2761
     26 H2          7.4342   -4.3197    0.8056 H         1 <0>         0.0715
     27 H3          7.4171   -4.3109   -0.9743 H         1 <0>         0.0713
     28 H4          8.4227   -5.4909   -0.0998 H         1 <0>         0.1131
     29 H5         10.8602   -1.5891   -0.1033 H         1 <0>         0.1515
     30 H6         10.3048    0.7983   -0.0878 H         1 <0>         0.1585
     31 H7          6.1237   -0.1906   -0.0425 H         1 <0>         0.1376
     32 H8          6.6961   -2.5739   -0.0696 H         1 <0>         0.1406
     33 H9          5.9478    1.9674    0.7753 H         1 <0>         0.1298
     34 H10         5.8909    1.9432   -0.9308 H         1 <0>         0.1405
     35 H11         2.1162    1.2510   -0.0118 H         1 <0>         0.1495
     36 H12         0.0021   -0.0041    0.0020 H         1 <0>         0.1329
     37 H13        -2.1470    1.1918    0.0184 H         1 <0>         0.1326
     38 H14        -2.1973    3.6501    0.0423 H         1 <0>         0.1431
     39 H15        -0.1093    5.6060   -0.8497 H         1 <0>         0.2343
@<TRIPOS>BOND
     1    1    2 1
     2    1   26 1
     3    1   27 1
     4    1   28 1
     5    2    3 1
     6    3    8 ar
     7    3    4 ar
     8    4    5 ar
     9    4   29 1
    10    5    6 ar
    11    5   30 1
    12    6    7 ar
    13    6    9 1
    14    7    8 ar
    15    7   31 1
    16    8   32 1
    17    9   10 2
    18    9   11 1
    19   11   12 1
    20   11   33 1
    21   11   34 1
    22   12   13 1
    23   13   18 2
    24   13   14 1
    25   14   15 1
    26   14   16 1
    27   16   17 2
    28   17   18 1
    29   17   19 1
    30   19   24 ar
    31   19   20 ar
    32   20   21 ar
    33   20   35 1
    34   21   22 ar
    35   21   36 1
    36   22   23 ar
    37   22   37 1
    38   23   24 ar
    39   23   38 1
    40   24   25 1
    41   25   39 1
@<TRIPOS>MOLECULE
ZINC04131200
   38    41     0     0     0
SMALL
USER_CHARGES

@<TRIPOS>ATOM
      1 C1          4.6373   14.1365    1.5224 C.3       1 <0>        -0.0631
      2 O1          5.1786   12.8204    1.6525 O.3       1 <0>        -0.2077
      3 C2          4.6989   11.8697    0.8081 C.ar      1 <0>         0.1096
      4 C3          3.7257   12.1989   -0.1267 C.ar      1 <0>        -0.2270
      5 C4          3.2332   11.2362   -0.9884 C.ar      1 <0>        -0.0728
      6 C5          3.7089    9.9425   -0.9292 C.ar      1 <0>        -0.2223
      7 C6          4.6840    9.6002    0.0113 C.ar      1 <0>         0.0313
      8 C7          5.1801   10.5740    0.8806 C.ar      1 <0>        -0.1399
      9 N1          5.1548    8.3177    0.0764 N.2       1 <0>        -0.1426
     10 C8          4.3170    7.3086    0.0396 C.2       1 <0>        -0.0264
     11 N2          2.9431    7.3412   -0.0613 N.am      1 <0>        -0.3480
     12 C9          2.2409    6.2210   -0.0926 C.2       1 <0>         0.3375
     13 O2          1.0291    6.2300   -0.1882 O.2       1 <0>        -0.3265
     14 C10         3.0068    4.9505   -0.0001 C.2       1 <0>        -0.2533
     15 C11         2.5471    3.6460   -0.0027 C.2       1 <0>        -0.0071
     16 C12         1.1446    3.1867    0.0728 C.ar      1 <0>        -0.1245
     17 C13        -0.0741    3.8540    0.1638 C.ar      1 <0>        -0.0508
     18 C14        -1.2477    3.1302    0.2189 C.ar      1 <0>        -0.1653
     19 C15        -1.2128    1.7461    0.1782 C.ar      1 <0>        -0.0762
     20 C16        -0.0095    1.0746    0.0939 C.ar      1 <0>        -0.1667
     21 C17         1.1839    1.7852    0.0372 C.ar      1 <0>         0.0721
     22 N3          2.5061    1.3660   -0.0542 N.am      1 <0>        -0.3026
     23 C18         3.3506    2.4111   -0.0815 C.2       1 <0>         0.3441
     24 O3          4.5636    2.3497   -0.1573 O.2       1 <0>        -0.3117
     25 S1          4.6824    5.5625    0.1076 S.3       1 <0>         0.4075
     26 H1          5.1052   14.7957    2.2536 H         1 <0>         0.1110
     27 H2          4.8322   14.5118    0.5177 H         1 <0>         0.0700
     28 H3          3.5618   14.1059    1.6965 H         1 <0>         0.0685
     29 H4          3.3520   13.2107   -0.1805 H         1 <0>         0.1376
     30 H5          2.4768   11.4989   -1.7131 H         1 <0>         0.1341
     31 H6          3.3250    9.1939   -1.6065 H         1 <0>         0.1360
     32 H7          5.9370   10.3171    1.6068 H         1 <0>         0.1613
     33 H8          2.4863    8.1952   -0.1148 H         1 <0>         0.2617
     34 H9         -0.1007    4.9333    0.1907 H         1 <0>         0.1881
     35 H10        -2.1952    3.6439    0.2891 H         1 <0>         0.1394
     36 H11        -2.1357    1.1865    0.2173 H         1 <0>         0.1357
     37 H12         0.0044   -0.0050    0.0674 H         1 <0>         0.1345
     38 H13         2.7838    0.4374   -0.0937 H         1 <0>         0.2547
@<TRIPOS>BOND
     1    1    2 1
     2    1   26 1
     3    1   27 1
     4    1   28 1
     5    2    3 1
     6    3    8 ar
     7    3    4 ar
     8    4    5 ar
     9    4   29 1
    10    5    6 ar
    11    5   30 1
    12    6    7 ar
    13    6   31 1
    14    7    8 ar
    15    7    9 1
    16    8   32 1
    17    9   10 2
    18   10   25 1
    19   10   11 1
    20   11   12 am
    21   11   33 1
    22   12   13 2
    23   12   14 1
    24   14   15 2
    25   14   25 1
    26   15   23 1
    27   15   16 1
    28   16   21 ar
    29   16   17 ar
    30   17   18 ar
    31   17   34 1
    32   18   19 ar
    33   18   35 1
    34   19   20 ar
    35   19   36 1
    36   20   21 ar
    37   20   37 1
    38   21   22 1
    39   22   23 am
    40   22   38 1
    41   23   24 2
@<TRIPOS>MOLECULE
ZINC04138271
   39    41     0     0     0
SMALL
USER_CHARGES

@<TRIPOS>ATOM
      1 C1          0.7811    6.3073    9.4247 C.3       1 <0>        -0.1568
      2 C2          1.2062    6.0807    7.9967 C.2       1 <0>        -0.0211
      3 C3          0.9514    4.9725    7.2834 C.2       1 <0>        -0.2073
      4 C4          1.5392    5.1727    5.9566 C.ar      1 <0>        -0.0934
      5 C5          1.6059    4.3968    4.7976 C.ar      1 <0>        -0.0623
      6 C6          2.2450    4.8826    3.6921 C.ar      1 <0>        -0.1341
      7 C7          2.8335    6.1398    3.7133 C.ar      1 <0>        -0.0923
      8 C8          2.7750    6.9240    4.8443 C.ar      1 <0>        -0.1415
      9 C9          2.1293    6.4493    5.9815 C.ar      1 <0>         0.0141
     10 N1          1.9091    6.9742    7.2352 N.pl3     1 <0>        -0.1964
     11 H1          2.2083    7.8472    7.5343 H         1 <0>         0.2415
     12 C10         2.3170    4.0446    2.4417 C.3       1 <0>         0.0403
     13 N2          1.1552    4.3289    1.5957 N.pl3     1 <0>        -0.8768
     14 S1          1.1470    3.8473    0.0112 S.o2      1 <0>         2.7538
     15 O1          2.3815    4.2732   -0.5490 O.2       1 <0>        -0.9045
     16 O2         -0.1088    4.2393   -0.5259 O.2       1 <0>        -0.9065
     17 C11         1.1709    2.0855    0.0021 C.ar      1 <0>        -0.7252
     18 C12        -0.0167    1.3781    0.0096 C.ar      1 <0>        -0.0325
     19 C13         0.0021   -0.0041    0.0020 C.ar      1 <0>        -0.0944
     20 C14         1.2084   -0.6789   -0.0136 C.ar      1 <0>        -0.0607
     21 C15         2.3960    0.0285   -0.0212 C.ar      1 <0>        -0.0946
     22 C16         2.3773    1.4107   -0.0136 C.ar      1 <0>        -0.0376
     23 N3          1.2285   -2.1589   -0.0218 N.pl3     1 <0>         0.5412
     24 O3          0.1821   -2.7822   -0.0147 O.2       1 <0>        -0.3457
     25 O4          2.2914   -2.7535   -0.0356 O.3       1 <0>        -0.3459
     26 H2         -0.2031    6.7754    9.4408 H         1 <0>         0.0928
     27 H3          0.7375    5.3515    9.9468 H         1 <0>         0.0996
     28 H4          1.5015    6.9589    9.9192 H         1 <0>         0.0810
     29 H5          0.4146    4.0991    7.6231 H         1 <0>         0.1561
     30 H6          1.1536    3.4164    4.7750 H         1 <0>         0.1315
     31 H7          3.3387    6.5085    2.8328 H         1 <0>         0.1384
     32 H8          3.2321    7.9025    4.8494 H         1 <0>         0.1302
     33 H9          2.3201    2.9886    2.7117 H         1 <0>         0.0760
     34 H10         3.2304    4.2829    1.8966 H         1 <0>         0.1038
     35 H11         0.3908    4.7992    1.9636 H         1 <0>         0.2540
     36 H12        -0.9592    1.9054    0.0170 H         1 <0>         0.1672
     37 H13        -0.9258   -0.5567    0.0079 H         1 <0>         0.1714
     38 H14         3.3385   -0.4987   -0.0327 H         1 <0>         0.1712
     39 H15         3.3052    1.9634   -0.0188 H         1 <0>         0.1657
@<TRIPOS>BOND
     1    1    2 1
     2    1   26 1
     3    1   27 1
     4    1   28 1
     5    2   10 1
     6    2    3 2
     7    3    4 1
     8    3   29 1
     9    4    9 ar
    10    4    5 ar
    11    5    6 ar
    12    5   30 1
    13    6    7 ar
    14    6   12 1
    15    7    8 ar
    16    7   31 1
    17    8    9 ar
    18    8   32 1
    19    9   10 1
    20   10   11 1
    21   12   13 1
    22   12   33 1
    23   12   34 1
    24   13   14 1
    25   13   35 1
    26   14   15 2
    27   14   16 2
    28   14   17 1
    29   17   22 ar
    30   17   18 ar
    31   18   19 ar
    32   18   36 1
    33   19   20 ar
    34   19   37 1
    35   20   21 ar
    36   20   23 1
    37   21   22 ar
    38   21   38 1
    39   22   39 1
    40   23   24 2
    41   23   25 1
@<TRIPOS>MOLECULE
ZINC04140357
   40    42     0     0     0
SMALL
USER_CHARGES

@<TRIPOS>ATOM
      1 C1          0.0219   -5.0656   -3.7712 C.3       1 <0>        -0.2141
      2 C2          0.9590   -4.8358   -2.5838 C.3       1 <0>        -0.0097
      3 O1          0.8053   -3.4972   -2.1079 O.3       1 <0>        -0.2555
      4 C3          1.5670   -3.1295   -1.0546 C.2       1 <0>         0.3602
      5 O2          2.3408   -3.9266   -0.5550 O.2       1 <0>        -0.3506
      6 C4          1.4668   -1.8283   -0.5357 C.2       1 <0>        -0.2038
      7 C5          0.2282   -1.2677   -0.3458 C.2       1 <0>         0.1970
      8 O3          0.0898   -0.0224    0.1507 O.3       1 <0>        -0.1374
      9 C6          1.1119    0.5521    0.8096 C.2       1 <0>         0.2651
     10 C7          2.3811    0.1040    0.6882 C.2       1 <0>        -0.2637
     11 C8          2.7181   -1.0661   -0.1943 C.3       1 <0>         0.0815
     12 H1          3.4118   -1.7250    0.3280 H         1 <0>         0.1322
     13 C9          3.3613   -0.5670   -1.4624 C.ar      1 <0>        -0.1398
     14 C10         4.6493   -0.9569   -1.7970 C.ar      1 <0>        -0.0771
     15 C11         5.1990   -0.4766   -2.9755 C.ar      1 <0>        -0.1887
     16 C12         4.4538    0.3768   -3.7674 C.ar      1 <0>        -0.0460
     17 N1          3.2334    0.7304   -3.4152 N.ar      1 <0>        -0.1645
     18 C13         2.6771    0.2895   -2.3037 C.ar      1 <0>        -0.0295
     19 C14         3.4259    0.7582    1.4169 C.1       1 <0>        -0.0635
     20 N2          4.2548    1.2772    1.9949 N.1       1 <0>        -0.0679
     21 N3          0.8580    1.6243    1.6283 N.pl3     1 <0>        -0.3826
     22 C15        -0.9675   -2.0389   -0.6893 C.2       1 <0>        -0.2859
     23 C16        -2.0957   -1.6376   -1.3904 C.2       1 <0>        -0.1129
     24 C17        -3.0825   -2.5744   -1.5742 C.2       1 <0>        -0.1892
     25 C18        -2.9121   -3.8251   -1.0714 C.2       1 <0>        -0.3366
     26 S1         -1.3509   -3.7422   -0.3224 S.3       1 <0>         0.4626
     27 H2         -1.0096   -4.9083   -3.4558 H         1 <0>         0.0829
     28 H3          0.2685   -4.3656   -4.5695 H         1 <0>         0.0894
     29 H4          0.1391   -6.0867   -4.1342 H         1 <0>         0.0879
     30 H5          1.9904   -4.9931   -2.8992 H         1 <0>         0.0890
     31 H6          0.7124   -5.5358   -1.7855 H         1 <0>         0.0854
     32 H7          5.2095   -1.6221   -1.1565 H         1 <0>         0.1440
     33 H8          6.1980   -0.7629   -3.2695 H         1 <0>         0.1385
     34 H9          4.8761    0.7582   -4.6854 H         1 <0>         0.1583
     35 H10         1.6751    0.6011   -2.0483 H         1 <0>         0.1579
     36 H11        -0.0480    1.9569    1.7250 H         1 <0>         0.2318
     37 H12         1.5847    2.0493    2.1102 H         1 <0>         0.2611
     38 H13        -2.1933   -0.6329   -1.7743 H         1 <0>         0.1552
     39 H14        -3.9836   -2.3202   -2.1126 H         1 <0>         0.1479
     40 H15        -3.5847   -4.6681   -1.1284 H         1 <0>         0.1910
@<TRIPOS>BOND
     1    1    2 1
     2    1   27 1
     3    1   28 1
     4    1   29 1
     5    2    3 1
     6    2   30 1
     7    2   31 1
     8    3    4 1
     9    4    5 2
    10    4    6 1
    11    6   11 1
    12    6    7 2
    13    7    8 1
    14    7   22 1
    15    8    9 1
    16    9   10 2
    17    9   21 1
    18   10   11 1
    19   10   19 1
    20   11   12 1
    21   11   13 1
    22   13   18 ar
    23   13   14 ar
    24   14   15 ar
    25   14   32 1
    26   15   16 ar
    27   15   33 1
    28   16   17 ar
    29   16   34 1
    30   17   18 ar
    31   18   35 1
    32   19   20 3
    33   21   36 1
    34   21   37 1
    35   22   26 1
    36   22   23 2
    37   23   24 1
    38   23   38 1
    39   24   25 2
    40   24   39 1
    41   25   26 1
    42   25   40 1
@<TRIPOS>MOLECULE
ZINC04140358
   40    42     0     0     0
SMALL
USER_CHARGES

@<TRIPOS>ATOM
      1 C1          1.9471    3.7005   -2.5907 C.3       1 <0>        -0.2145
      2 C2          0.6250    3.1460   -2.0563 C.3       1 <0>        -0.0066
      3 O1          0.8324    1.8265   -1.5485 O.3       1 <0>        -0.2596
      4 C3         -0.2434    1.1905   -1.0360 C.2       1 <0>         0.3608
      5 O2         -1.3294    1.7420   -1.0261 O.2       1 <0>        -0.3640
      6 C4         -0.1110   -0.1089   -0.5196 C.2       1 <0>        -0.2192
      7 C5         -1.1767   -0.6987    0.1136 C.2       1 <0>         0.2256
      8 O3         -1.0896   -1.9434    0.6229 O.3       1 <0>        -0.1332
      9 C6          0.1181   -2.4877    0.8556 C.2       1 <0>         0.2614
     10 C7          1.2433   -2.0090    0.2743 C.2       1 <0>        -0.2655
     11 C8          1.1951   -0.8397   -0.6726 C.3       1 <0>         0.0726
     12 H1          2.0178   -0.1608   -0.4482 H         1 <0>         0.1239
     13 C9          1.3291   -1.3326   -2.0904 C.ar      1 <0>        -0.1318
     14 C10         2.3883   -0.9147   -2.8818 C.ar      1 <0>        -0.0739
     15 C11         2.4712   -1.3940   -4.1800 C.ar      1 <0>        -0.1900
     16 C12         1.5023   -2.2664   -4.6390 C.ar      1 <0>        -0.0471
     17 N1          0.5087   -2.6424   -3.8580 N.ar      1 <0>        -0.1642
     18 C13         0.4013   -2.2112   -2.6163 C.ar      1 <0>        -0.0329
     19 C14         2.5012   -2.6302    0.5613 C.1       1 <0>        -0.0634
     20 N2          3.4991   -3.1230    0.7890 N.1       1 <0>        -0.0694
     21 N3          0.2126   -3.5602    1.7071 N.pl3     1 <0>        -0.3821
     22 C15        -2.4343    0.0397    0.2378 C.2       1 <0>        -0.2861
     23 C16        -3.6887   -0.2787   -0.2628 C.2       1 <0>        -0.1126
     24 C17        -4.7090    0.6007    0.0038 C.2       1 <0>        -0.1923
     25 C18        -4.4483    1.7188    0.7304 C.2       1 <0>        -0.3385
     26 S1         -2.7558    1.5800    1.0788 S.3       1 <0>         0.4991
     27 H2          2.6801    3.7324   -1.7846 H         1 <0>         0.0848
     28 H3          2.3143    3.0570   -3.3903 H         1 <0>         0.0860
     29 H4          1.7889    4.7070   -2.9780 H         1 <0>         0.0891
     30 H5         -0.1079    3.1141   -2.8625 H         1 <0>         0.0891
     31 H6          0.2579    3.7894   -1.2568 H         1 <0>         0.0849
     32 H7          3.1308   -0.2317   -2.4962 H         1 <0>         0.1419
     33 H8          3.2828   -1.0899   -4.8244 H         1 <0>         0.1370
     34 H9          1.5599   -2.6446   -5.6490 H         1 <0>         0.1579
     35 H10        -0.4239   -2.5453   -2.0048 H         1 <0>         0.1566
     36 H11        -0.5846   -3.9146    2.1310 H         1 <0>         0.2323
     37 H12         1.0767   -3.9636    1.8849 H         1 <0>         0.2609
     38 H13        -3.8553   -1.1785   -0.8364 H         1 <0>         0.1500
     39 H14        -5.7070    0.4061   -0.3601 H         1 <0>         0.1447
     40 H15        -5.1313    2.5022    1.0239 H         1 <0>         0.1882
@<TRIPOS>BOND
     1    1    2 1
     2    1   27 1
     3    1   28 1
     4    1   29 1
     5    2    3 1
     6    2   30 1
     7    2   31 1
     8    3    4 1
     9    4    5 2
    10    4    6 1
    11    6   11 1
    12    6    7 2
    13    7    8 1
    14    7   22 1
    15    8    9 1
    16    9   10 2
    17    9   21 1
    18   10   11 1
    19   10   19 1
    20   11   12 1
    21   11   13 1
    22   13   18 ar
    23   13   14 ar
    24   14   15 ar
    25   14   32 1
    26   15   16 ar
    27   15   33 1
    28   16   17 ar
    29   16   34 1
    30   17   18 ar
    31   18   35 1
    32   19   20 3
    33   21   36 1
    34   21   37 1
    35   22   26 1
    36   22   23 2
    37   23   24 1
    38   23   38 1
    39   24   25 2
    40   24   39 1
    41   25   26 1
    42   25   40 1
@<TRIPOS>MOLECULE
ZINC04143893
   37    38     0     0     0
SMALL
USER_CHARGES

@<TRIPOS>ATOM
      1 C1         -5.6049    4.4832   -0.8175 C.2       1 <0>        -0.1793
      2 C2         -4.6718    4.4556    0.1015 C.2       1 <0>        -0.2127
      3 C3         -3.6191    3.3775    0.0743 C.3       1 <0>         0.0203
      4 N1         -2.2897    3.9931    0.0689 N.pl3     1 <0>        -0.2805
      5 C4         -1.1747    3.2079    0.0453 C.2       1 <0>         0.1117
      6 N2         -1.1177    1.8861    0.0188 N.2       1 <0>        -0.4072
      7 C5         -0.0065    1.1983    0.0017 C.2       1 <0>         0.3142
      8 O1          0.0191   -0.0169   -0.0172 O.2       1 <0>        -0.2858
      9 C6          1.2544    2.0544    0.0009 C.3       1 <0>        -0.2558
     10 H1          1.8377    1.9031   -0.9073 H         1 <0>         0.1720
     11 S1          0.4838    3.7218    0.0349 S.3       1 <0>         0.1179
     12 C7          2.1004    1.8042    1.2509 C.3       1 <0>        -0.1592
     13 C8          3.3900    2.5770    1.1476 C.2       1 <0>         0.3039
     14 O2          3.6107    3.2606    0.1704 O.2       1 <0>        -0.3552
     15 N3          4.2981    2.5086    2.1412 N.am      1 <0>        -0.3220
     16 C9          5.5427    3.1311    1.9955 C.ar      1 <0>         0.1374
     17 C10         6.0654    3.3538    0.7281 C.ar      1 <0>        -0.1524
     18 C11         7.2938    3.9688    0.5877 C.ar      1 <0>        -0.0636
     19 C12         8.0035    4.3629    1.7075 C.ar      1 <0>        -0.1595
     20 C13         7.4860    4.1427    2.9705 C.ar      1 <0>        -0.0507
     21 C14         6.2553    3.5327    3.1175 C.ar      1 <0>        -0.1582
     22 N4          5.6992    3.3028    4.4698 N.pl3     1 <0>         0.5588
     23 O3          6.2808    3.7347    5.4490 O.2       1 <0>        -0.3415
     24 O4          4.6600    2.6817    4.6034 O.3       1 <0>        -0.3889
     25 H2         -5.6199    3.7334   -1.5946 H         1 <0>         0.1205
     26 H3         -6.3593    5.2558   -0.7979 H         1 <0>         0.1213
     27 H4         -4.6568    5.2054    0.8787 H         1 <0>         0.1308
     28 H5         -3.7426    2.7717   -0.8234 H         1 <0>         0.1102
     29 H6         -3.7233    2.7455    0.9562 H         1 <0>         0.1140
     30 H7         -2.2025    4.9591    0.0822 H         1 <0>         0.2553
     31 H8          1.5504    2.1314    2.1333 H         1 <0>         0.1264
     32 H9          2.3203    0.7399    1.3338 H         1 <0>         0.1374
     33 H10         4.0888    2.0277    2.9572 H         1 <0>         0.2740
     34 H11         5.5116    3.0466   -0.1467 H         1 <0>         0.1870
     35 H12         7.7009    4.1420   -0.3975 H         1 <0>         0.1465
     36 H13         8.9642    4.8434    1.5951 H         1 <0>         0.1474
     37 H14         8.0424    4.4519    3.8429 H         1 <0>         0.1656
@<TRIPOS>BOND
     1    1    2 2
     2    1   25 1
     3    1   26 1
     4    2    3 1
     5    2   27 1
     6    3    4 1
     7    3   28 1
     8    3   29 1
     9    4    5 1
    10    4   30 1
    11    5   11 1
    12    5    6 2
    13    6    7 1
    14    7    8 2
    15    7    9 1
    16    9   10 1
    17    9   11 1
    18    9   12 1
    19   12   13 1
    20   12   31 1
    21   12   32 1
    22   13   14 2
    23   13   15 am
    24   15   16 1
    25   15   33 1
    26   16   21 ar
    27   16   17 ar
    28   17   18 ar
    29   17   34 1
    30   18   19 ar
    31   18   35 1
    32   19   20 ar
    33   19   36 1
    34   20   21 ar
    35   20   37 1
    36   21   22 1
    37   22   23 2
    38   22   24 1
@<TRIPOS>MOLECULE
ZINC04149018
   45    47     0     0     0
SMALL
USER_CHARGES

@<TRIPOS>ATOM
      1 C1          4.5155    4.9248    4.6652 C.3       1 <0>        -0.1747
      2 C2          4.9765    5.3927    3.3090 C.ar      1 <0>        -0.0295
      3 C3          6.3146    5.6651    3.0903 C.ar      1 <0>        -0.1683
      4 C4          6.7423    6.0945    1.8471 C.ar      1 <0>        -0.0325
      5 C5          5.8340    6.2525    0.8193 C.ar      1 <0>        -0.1982
      6 C6          4.4884    5.9798    1.0352 C.ar      1 <0>         0.1102
      7 C7          4.0614    5.5540    2.2875 C.ar      1 <0>        -0.1763
      8 N1          3.5675    6.1383   -0.0011 N.pl3     1 <0>        -0.3524
      9 C8          2.2537    5.7178    0.1664 C.3       1 <0>        -0.0059
     10 C9          1.2402    6.6177    0.0565 C.2       1 <0>        -0.1242
     11 C10        -0.1596    6.1979    0.2291 C.2       1 <0>         0.3036
     12 O1         -1.0569    7.0120    0.1285 O.2       1 <0>        -0.2283
     13 C11        -0.4721    4.7818    0.5264 C.ar      1 <0>        -0.1157
     14 C12        -1.7865    4.3647    0.6929 C.ar      1 <0>        -0.0767
     15 C13        -2.0576    3.0324    0.9650 C.ar      1 <0>        -0.1131
     16 C14        -1.0280    2.1192    1.0828 C.ar      1 <0>        -0.1152
     17 C15         0.2890    2.5209    0.9192 C.ar      1 <0>        -0.0759
     18 C16         0.5754    3.8512    0.6407 C.ar      1 <0>        -0.1222
     19 C17         1.9739    4.3027    0.4616 C.2       1 <0>         0.2745
     20 O2          2.8883    3.5078    0.5583 O.2       1 <0>        -0.2617
     21 N2          1.5297    7.9491   -0.2220 N.2       1 <0>        -0.0916
     22 C18         2.9206    8.3756   -0.3949 C.3       1 <0>        -0.1130
     23 C19         2.9608    9.8763   -0.6904 C.3       1 <0>         0.0088
     24 O3          2.4824   10.5985    0.4460 O.3       1 <0>        -0.3396
     25 C20         8.2017    6.3895    1.6139 C.3       1 <0>        -0.1743
     26 H1          4.2523    5.7875    5.2772 H         1 <0>         0.0869
     27 H2          3.6434    4.2811    4.5505 H         1 <0>         0.0825
     28 H3          5.3174    4.3672    5.1491 H         1 <0>         0.0816
     29 H4          7.0273    5.5428    3.8925 H         1 <0>         0.1297
     30 H5          6.1687    6.5874   -0.1514 H         1 <0>         0.1243
     31 H6          3.0160    5.3454    2.4602 H         1 <0>         0.1339
     32 H7          3.8445    6.5420   -0.8386 H         1 <0>         0.2502
     33 H8         -2.5952    5.0753    0.6062 H         1 <0>         0.1594
     34 H9         -3.0799    2.7074    1.0896 H         1 <0>         0.1411
     35 H10        -1.2505    1.0848    1.2994 H         1 <0>         0.1409
     36 H11         1.0897    1.8018    1.0086 H         1 <0>         0.1586
     37 H12         1.8786    5.4364   -0.7168 H         1 <0>         0.1059
     38 H13         3.4798    8.1699    0.5178 H         1 <0>         0.1292
     39 H14         3.3674    7.8296   -1.2257 H         1 <0>         0.0835
     40 H15         3.9861   10.1766   -0.9066 H         1 <0>         0.0574
     41 H16         2.3292   10.0940   -1.5516 H         1 <0>         0.0696
     42 H17         2.4801   11.5585    0.3295 H         1 <0>         0.2092
     43 H18         8.4016    7.4365    1.8419 H         1 <0>         0.0853
     44 H19         8.8084    5.7548    2.2595 H         1 <0>         0.0832
     45 H20         8.4504    6.1909    0.5714 H         1 <0>         0.0798
@<TRIPOS>BOND
     1    1    2 1
     2    1   26 1
     3    1   27 1
     4    1   28 1
     5    2    7 ar
     6    2    3 ar
     7    3    4 ar
     8    3   29 1
     9    4    5 ar
    10    4   25 1
    11    5    6 ar
    12    5   30 1
    13    6    7 ar
    14    6    8 1
    15    7   31 1
    16    8    9 1
    17    8   32 1
    18    9   19 1
    19    9   37 1
    20    9   10 1
    21   10   11 1
    22   10   21 2
    23   11   12 2
    24   11   13 1
    25   13   18 ar
    26   13   14 ar
    27   14   15 ar
    28   14   33 1
    29   15   16 ar
    30   15   34 1
    31   16   17 ar
    32   16   35 1
    33   17   18 ar
    34   17   36 1
    35   18   19 1
    36   19   20 2
    37   21   22 1
    38   22   23 1
    39   22   38 1
    40   22   39 1
    41   23   24 1
    42   23   40 1
    43   23   41 1
    44   24   42 1
    45   25   43 1
    46   25   44 1
    47   25   45 1
@<TRIPOS>MOLECULE
ZINC04149018
   45    47     0     0     0
SMALL
USER_CHARGES

@<TRIPOS>ATOM
      1 C1          4.5155    4.9248    4.6652 C.3       1 <0>        -0.1735
      2 C2          4.9765    5.3927    3.3090 C.ar      1 <0>        -0.0315
      3 C3          6.3146    5.6651    3.0903 C.ar      1 <0>        -0.1757
      4 C4          6.7423    6.0945    1.8471 C.ar      1 <0>        -0.0327
      5 C5          5.8340    6.2525    0.8193 C.ar      1 <0>        -0.1971
      6 C6          4.4884    5.9798    1.0352 C.ar      1 <0>         0.1275
      7 C7          4.0614    5.5540    2.2875 C.ar      1 <0>        -0.1872
      8 N1          3.5675    6.1383   -0.0011 N.pl3     1 <0>        -0.3160
      9 C8          2.2537    5.7178    0.1664 C.3       1 <0>         0.0426
     10 C9          1.2402    6.6177    0.0565 C.2       1 <0>        -0.1288
     11 C10        -0.1596    6.1979    0.2291 C.2       1 <0>         0.2731
     12 O1         -1.0569    7.0120    0.1285 O.2       1 <0>        -0.2762
     13 C11        -0.4721    4.7818    0.5264 C.ar      1 <0>        -0.1235
     14 C12        -1.7865    4.3647    0.6929 C.ar      1 <0>        -0.0764
     15 C13        -2.0576    3.0324    0.9650 C.ar      1 <0>        -0.1155
     16 C14        -1.0280    2.1192    1.0828 C.ar      1 <0>        -0.1120
     17 C15         0.2890    2.5209    0.9192 C.ar      1 <0>        -0.0767
     18 C16         0.5754    3.8512    0.6407 C.ar      1 <0>        -0.1169
     19 C17         1.9739    4.3027    0.4616 C.2       1 <0>         0.2762
     20 O2          2.8883    3.5078    0.5583 O.2       1 <0>        -0.2572
     21 N2          1.5297    7.9491   -0.2220 N.2       1 <0>        -0.1006
     22 C18         0.4438    8.9251   -0.3425 C.3       1 <0>        -0.1055
     23 C19         1.0298   10.3047   -0.6495 C.3       1 <0>         0.0065
     24 O3          1.6599   10.2800   -1.9318 O.3       1 <0>        -0.3498
     25 C20         8.2017    6.3895    1.6139 C.3       1 <0>        -0.1736
     26 H1          4.2523    5.7875    5.2772 H         1 <0>         0.0834
     27 H2          3.6434    4.2811    4.5505 H         1 <0>         0.0800
     28 H3          5.3174    4.3672    5.1491 H         1 <0>         0.0806
     29 H4          7.0273    5.5428    3.8925 H         1 <0>         0.1268
     30 H5          6.1687    6.5874   -0.1514 H         1 <0>         0.1282
     31 H6          3.0160    5.3454    2.4602 H         1 <0>         0.1280
     32 H7          3.8445    6.5420   -0.8386 H         1 <0>         0.2515
     33 H8         -2.5952    5.0753    0.6062 H         1 <0>         0.1566
     34 H9         -3.0799    2.7074    1.0896 H         1 <0>         0.1407
     35 H10        -1.2505    1.0848    1.2994 H         1 <0>         0.1413
     36 H11         1.0897    1.8018    1.0086 H         1 <0>         0.1601
     37 H12         1.8786    5.4364   -0.7169 H         1 <0>         0.1020
     38 H13        -0.2251    8.6267   -1.1497 H         1 <0>         0.1185
     39 H14        -0.1127    8.9669    0.5938 H         1 <0>         0.1171
     40 H15         0.2311   11.0465   -0.6513 H         1 <0>         0.0615
     41 H16         1.7653   10.5646    0.1118 H         1 <0>         0.0709
     42 H17         2.0544   11.1235   -2.1925 H         1 <0>         0.2086
     43 H18         8.4016    7.4365    1.8419 H         1 <0>         0.0842
     44 H19         8.8084    5.7548    2.2595 H         1 <0>         0.0807
     45 H20         8.4504    6.1909    0.5714 H         1 <0>         0.0798
@<TRIPOS>BOND
     1    1    2 1
     2    1   26 1
     3    1   27 1
     4    1   28 1
     5    2    7 ar
     6    2    3 ar
     7    3    4 ar
     8    3   29 1
     9    4    5 ar
    10    4   25 1
    11    5    6 ar
    12    5   30 1
    13    6    7 ar
    14    6    8 1
    15    7   31 1
    16    8    9 1
    17    8   32 1
    18    9   19 1
    19    9   37 1
    20    9   10 1
    21   10   11 1
    22   10   21 2
    23   11   12 2
    24   11   13 1
    25   13   18 ar
    26   13   14 ar
    27   14   15 ar
    28   14   33 1
    29   15   16 ar
    30   15   34 1
    31   16   17 ar
    32   16   35 1
    33   17   18 ar
    34   17   36 1
    35   18   19 1
    36   19   20 2
    37   21   22 1
    38   22   23 1
    39   22   38 1
    40   22   39 1
    41   23   24 1
    42   23   40 1
    43   23   41 1
    44   24   42 1
    45   25   43 1
    46   25   44 1
    47   25   45 1
@<TRIPOS>MOLECULE
ZINC04164300
   41    43     0     0     0
SMALL
USER_CHARGES

@<TRIPOS>ATOM
      1 C1          2.3078    6.1284   -2.5808 C.3       1 <0>        -0.0396
      2 N1          1.7718    5.5447   -1.3486 N.am      1 <0>        -0.2435
      3 C2          1.3422    6.3647   -0.3678 C.2       1 <0>         0.3220
      4 O1          1.3978    7.5740   -0.5038 O.2       1 <0>        -0.3577
      5 C3          0.8056    5.7768    0.8666 C.ar      1 <0>        -0.1116
      6 C4          0.3453    6.5669    1.9192 C.ar      1 <0>        -0.0639
      7 C5         -0.1478    5.9642    3.0554 C.ar      1 <0>        -0.1300
      8 C6         -0.1905    4.5801    3.1615 C.ar      1 <0>        -0.1000
      9 C7          0.2592    3.7812    2.1334 C.ar      1 <0>        -0.1266
     10 C8          0.7624    4.3695    0.9741 C.ar      1 <0>        -0.0527
     11 C9          1.2555    3.5636   -0.1523 C.2       1 <0>        -0.0025
     12 N2          1.7254    4.1562   -1.2205 N.2       1 <0>        -0.0243
     13 C10         1.2260    2.0848   -0.0761 C.ar      1 <0>        -0.0995
     14 C11         2.2954    1.3380   -0.5720 C.ar      1 <0>        -0.0053
     15 C12         2.2655   -0.0377   -0.4999 C.ar      1 <0>        -0.2295
     16 C13         1.1704   -0.6819    0.0657 C.ar      1 <0>         0.1886
     17 C14         0.1035    0.0598    0.5600 C.ar      1 <0>        -0.2071
     18 C15         0.1287    1.4362    0.4907 C.ar      1 <0>        -0.0125
     19 N3         -1.0603   -0.6291    1.1618 N.pl3     1 <0>         0.5646
     20 O2         -1.9237    0.0162    1.7288 O.2       1 <0>        -0.3537
     21 O3         -1.1544   -1.8413    1.0899 O.3       1 <0>        -0.3831
     22 N4          1.1423   -2.0750    0.1366 N.pl3     1 <0>        -0.3424
     23 C16         2.3287   -2.8513   -0.2321 C.3       1 <0>        -0.0105
     24 C17         2.0336   -4.3434   -0.0661 C.3       1 <0>        -0.0144
     25 O4          1.0215   -4.7351   -0.9958 O.3       1 <0>        -0.3490
     26 H1          3.3828    6.2753   -2.4755 H         1 <0>         0.0817
     27 H2          2.1131    5.4559   -3.4161 H         1 <0>         0.0955
     28 H3          1.8265    7.0884   -2.7674 H         1 <0>         0.1133
     29 H4          0.3756    7.6439    1.8443 H         1 <0>         0.1601
     30 H5         -0.5053    6.5742    3.8719 H         1 <0>         0.1390
     31 H6         -0.5808    4.1252    4.0598 H         1 <0>         0.1387
     32 H7          0.2224    2.7057    2.2250 H         1 <0>         0.1482
     33 H8          3.1457    1.8378   -1.0119 H         1 <0>         0.1543
     34 H9          3.0931   -0.6161   -0.8832 H         1 <0>         0.1507
     35 H10        -0.7023    2.0118    0.8708 H         1 <0>         0.1735
     36 H11         0.3372   -2.5295    0.4301 H         1 <0>         0.2815
     37 H12         2.5892   -2.6458   -1.2703 H         1 <0>         0.0967
     38 H13         3.1611   -2.5715    0.4136 H         1 <0>         0.0882
     39 H14         2.9415   -4.9165   -0.2545 H         1 <0>         0.0722
     40 H15         1.6875   -4.5345    0.9497 H         1 <0>         0.0723
     41 H16         0.7835   -5.6711   -0.9468 H         1 <0>         0.2183
@<TRIPOS>BOND
     1    1    2 1
     2    1   26 1
     3    1   27 1
     4    1   28 1
     5    2   12 1
     6    2    3 am
     7    3    4 2
     8    3    5 1
     9    5   10 ar
    10    5    6 ar
    11    6    7 ar
    12    6   29 1
    13    7    8 ar
    14    7   30 1
    15    8    9 ar
    16    8   31 1
    17    9   10 ar
    18    9   32 1
    19   10   11 1
    20   11   12 2
    21   11   13 1
    22   13   18 ar
    23   13   14 ar
    24   14   15 ar
    25   14   33 1
    26   15   16 ar
    27   15   34 1
    28   16   17 ar
    29   16   22 1
    30   17   18 ar
    31   17   19 1
    32   18   35 1
    33   19   20 2
    34   19   21 1
    35   22   23 1
    36   22   36 1
    37   23   24 1
    38   23   37 1
    39   23   38 1
    40   24   25 1
    41   24   39 1
    42   24   40 1
    43   25   41 1
@<TRIPOS>MOLECULE
ZINC04164369
   44    46     0     0     0
SMALL
USER_CHARGES

@<TRIPOS>ATOM
      1 C1         -0.9085    3.0054   -0.5105 C.3       1 <0>        -0.2481
      2 C2         -0.1196    1.9530    0.2712 C.3       1 <0>         0.0303
      3 H1         -0.1576    1.0019   -0.2598 H         1 <0>         0.0818
      4 C3          1.3362    2.4036    0.4068 C.3       1 <0>        -0.0050
      5 N1          2.1175    1.3441    1.0497 N.pl3     1 <0>        -0.3421
      6 C4          3.4811    1.5260    1.2819 C.ar      1 <0>         0.1889
      7 C5          4.1294    2.6445    0.7694 C.ar      1 <0>        -0.2311
      8 C6          5.4749    2.8293    1.0022 C.ar      1 <0>        -0.0284
      9 C7          6.1894    1.8872    1.7432 C.ar      1 <0>        -0.1023
     10 C8          5.5379    0.7632    2.2513 C.ar      1 <0>         0.0134
     11 C9          4.1907    0.5858    2.0205 C.ar      1 <0>        -0.2061
     12 N2          3.4986   -0.6064    2.5598 N.pl3     1 <0>         0.5648
     13 O1          4.0779   -1.3497    3.3315 O.2       1 <0>        -0.3470
     14 O2          2.3499   -0.8441    2.2319 O.3       1 <0>        -0.3856
     15 C10         7.6370    2.0800    1.9893 C.2       1 <0>        -0.0046
     16 C11         8.1594    3.4179    2.3033 C.ar      1 <0>        -0.0484
     17 C12         7.3257    4.5327    2.3791 C.ar      1 <0>        -0.1299
     18 C13         7.8636    5.7651    2.6778 C.ar      1 <0>        -0.1040
     19 C14         9.2263    5.9088    2.9037 C.ar      1 <0>        -0.1309
     20 C15        10.0687    4.8212    2.8334 C.ar      1 <0>        -0.0625
     21 C16         9.5449    3.5645    2.5326 C.ar      1 <0>        -0.1110
     22 C17        10.3953    2.3701    2.4455 C.2       1 <0>         0.3215
     23 O3         11.5958    2.4502    2.6355 O.2       1 <0>        -0.3572
     24 N3          9.8261    1.1833    2.1515 N.am      1 <0>        -0.2423
     25 N4          8.4537    1.0588    1.9331 N.2       1 <0>        -0.0193
     26 C18        10.6719   -0.0097    2.0640 C.3       1 <0>        -0.0401
     27 O4         -0.6927    1.7963    1.5708 O.3       1 <0>        -0.3454
     28 H2         -0.8705    3.9566    0.0205 H         1 <0>         0.0909
     29 H3         -0.4713    3.1250   -1.5018 H         1 <0>         0.0837
     30 H4         -1.9457    2.6844   -0.6071 H         1 <0>         0.0833
     31 H5          1.7467    2.6088   -0.5819 H         1 <0>         0.0870
     32 H6          1.3817    3.3078    1.0138 H         1 <0>         0.0967
     33 H7          1.6867    0.5162    1.3138 H         1 <0>         0.2819
     34 H8          3.5770    3.3710    0.1919 H         1 <0>         0.1488
     35 H9          5.9770    3.7002    0.6074 H         1 <0>         0.1501
     36 H10         6.0888    0.0324    2.8248 H         1 <0>         0.1769
     37 H11         6.2647    4.4305    2.2053 H         1 <0>         0.1454
     38 H12         7.2185    6.6292    2.7368 H         1 <0>         0.1348
     39 H13         9.6298    6.8832    3.1365 H         1 <0>         0.1388
     40 H14        11.1273    4.9409    3.0103 H         1 <0>         0.1609
     41 H15        10.7347   -0.4832    3.0438 H         1 <0>         0.0847
     42 H16        10.2397   -0.7099    1.3491 H         1 <0>         0.0966
     43 H17        11.6706    0.2764    1.7340 H         1 <0>         0.1122
     44 H18        -1.6168    1.5114    1.5614 H         1 <0>         0.2181
@<TRIPOS>BOND
     1    1    2 1
     2    1   28 1
     3    1   29 1
     4    1   30 1
     5    2    3 1
     6    2    4 1
     7    2   27 1
     8    4    5 1
     9    4   31 1
    10    4   32 1
    11    5    6 1
    12    5   33 1
    13    6   11 ar
    14    6    7 ar
    15    7    8 ar
    16    7   34 1
    17    8    9 ar
    18    8   35 1
    19    9   10 ar
    20    9   15 1
    21   10   11 ar
    22   10   36 1
    23   11   12 1
    24   12   13 2
    25   12   14 1
    26   15   25 2
    27   15   16 1
    28   16   21 ar
    29   16   17 ar
    30   17   18 ar
    31   17   37 1
    32   18   19 ar
    33   18   38 1
    34   19   20 ar
    35   19   39 1
    36   20   21 ar
    37   20   40 1
    38   21   22 1
    39   22   23 2
    40   22   24 am
    41   24   25 1
    42   24   26 1
    43   26   41 1
    44   26   42 1
    45   26   43 1
    46   27   44 1
@<TRIPOS>MOLECULE
ZINC04176046
   40    42     0     0     0
SMALL
USER_CHARGES

@<TRIPOS>ATOM
      1 C1          0.9882    5.5461   -2.1073 C.3       1 <0>        -0.2085
      2 C2          2.2832    6.0040   -1.4333 C.3       1 <0>        -0.1131
      3 C3          2.3428    7.5329   -1.4288 C.3       1 <0>        -0.2063
      4 C4          2.3187    5.4880    0.0067 C.3       1 <0>        -0.0875
      5 C5          2.3839    3.9825   -0.0007 C.ar      1 <0>         0.0765
      6 N1          1.2579    3.3010    0.0022 N.ar      1 <0>        -0.2099
      7 C6          1.2568    1.9684    0.0006 C.ar      1 <0>         0.0484
      8 C7          2.4926    1.3004   -0.0148 C.ar      1 <0>        -0.1017
      9 C8          3.6713    2.0822   -0.0217 C.ar      1 <0>         0.0578
     10 N2          3.5677    3.3995   -0.0144 N.ar      1 <0>        -0.1952
     11 N3          4.7191    1.1874   -0.0361 N.pl3     1 <0>        -0.1400
     12 C9          4.1805   -0.0699   -0.0375 C.2       1 <0>         0.1694
     13 N4          2.8722    0.0045   -0.0250 N.2       1 <0>        -0.1268
     14 O1          4.8923   -1.2189   -0.0494 O.3       1 <0>        -0.2182
     15 C10         6.0842    1.5065   -0.0472 C.ar      1 <0>         0.0387
     16 C11         6.6547    2.1593    1.0371 C.ar      1 <0>        -0.1003
     17 C12         8.0009    2.4681    1.0253 C.ar      1 <0>        -0.1179
     18 C13         8.7779    2.1376   -0.0697 C.ar      1 <0>        -0.1162
     19 C14         8.2115    1.4917   -1.1532 C.ar      1 <0>        -0.1188
     20 C15         6.8669    1.1755   -1.1450 C.ar      1 <0>        -0.1225
     21 C16        -0.0144    1.2112    0.0087 C.2       1 <0>         0.3519
     22 O2          0.0021   -0.0041    0.0020 O.2       1 <0>        -0.3254
     23 N5         -1.1906    1.8691    0.0179 N.am      1 <0>        -0.4160
     24 H1          0.9629    5.9137   -3.1331 H         1 <0>         0.0726
     25 H2          0.9458    4.4569   -2.1105 H         1 <0>         0.0826
     26 H3          0.1335    5.9414   -1.5585 H         1 <0>         0.0756
     27 H4          3.1379    5.6087   -1.9821 H         1 <0>         0.0994
     28 H5          3.2653    7.8591   -0.9486 H         1 <0>         0.0743
     29 H6          2.3174    7.9005   -2.4546 H         1 <0>         0.0780
     30 H7          1.4880    7.9282   -0.8799 H         1 <0>         0.0742
     31 H8          1.4187    5.8102    0.5304 H         1 <0>         0.1073
     32 H9          3.1969    5.8873    0.5141 H         1 <0>         0.1080
     33 H10         5.0915   -1.5491   -0.9362 H         1 <0>         0.2507
     34 H11         6.0473    2.4216    1.8908 H         1 <0>         0.1485
     35 H12         8.4462    2.9720    1.8705 H         1 <0>         0.1398
     36 H13         9.8293    2.3841   -0.0785 H         1 <0>         0.1361
     37 H14         8.8209    1.2345   -2.0069 H         1 <0>         0.1379
     38 H15         6.4251    0.6711   -1.9915 H         1 <0>         0.1336
     39 H16        -2.0240    1.3728    0.0191 H         1 <0>         0.2317
     40 H17        -1.2038    2.8390    0.0232 H         1 <0>         0.2311
@<TRIPOS>BOND
     1    1    2 1
     2    1   24 1
     3    1   25 1
     4    1   26 1
     5    2    3 1
     6    2    4 1
     7    2   27 1
     8    3   28 1
     9    3   29 1
    10    3   30 1
    11    4    5 1
    12    4   31 1
    13    4   32 1
    14    5   10 ar
    15    5    6 ar
    16    6    7 ar
    17    7    8 ar
    18    7   21 1
    19    8   13 1
    20    8    9 ar
    21    9   10 ar
    22    9   11 1
    23   11   12 1
    24   11   15 1
    25   12   13 2
    26   12   14 1
    27   14   33 1
    28   15   20 ar
    29   15   16 ar
    30   16   17 ar
    31   16   34 1
    32   17   18 ar
    33   17   35 1
    34   18   19 ar
    35   18   36 1
    36   19   20 ar
    37   19   37 1
    38   20   38 1
    39   21   22 2
    40   21   23 am
    41   23   39 1
    42   23   40 1
@<TRIPOS>MOLECULE
ZINC04177054
   42    44     0     0     0
SMALL
USER_CHARGES

@<TRIPOS>ATOM
      1 C1         -2.5318   -1.9833   -2.4785 C.3       1 <0>        -0.1750
      2 C2         -2.4544   -1.2154   -1.1841 C.2       1 <0>         0.1509
      3 C3         -2.5876    0.1184   -1.2132 C.2       1 <0>        -0.3253
      4 C4         -2.5137    0.9791    0.0197 C.3       1 <0>         0.1671
      5 H1         -3.3518    1.6761    0.0272 H         1 <0>         0.1301
      6 N1         -2.5739    0.1325    1.2080 N.pl3     1 <0>        -0.1763
      7 C5         -2.4424   -1.2170    1.1755 C.2       1 <0>         0.1337
      8 N2         -2.5370   -1.6602    2.3991 N.2       1 <0>        -0.2547
      9 C6         -2.7318   -0.6336    3.2330 C.2       1 <0>        -0.0326
     10 N3         -2.7620    0.4808    2.5445 N.2       1 <0>        -0.0907
     11 C7         -2.8914   -0.7411    4.7277 C.3       1 <0>        -0.0667
     12 C8         -4.3720   -0.9164    5.0712 C.3       1 <0>        -0.1597
     13 C9         -4.5340   -1.0255    6.5887 C.3       1 <0>        -0.0005
     14 O1         -5.9169   -1.1892    6.9096 O.3       1 <0>        -0.3527
     15 N4         -2.2493   -1.9053   -0.0144 N.pl3     1 <0>        -0.2477
     16 C10        -1.2190    1.7503    0.0173 C.ar      1 <0>        -0.1384
     17 C11        -0.0126    1.0758    0.0080 C.ar      1 <0>        -0.0726
     18 C12         1.1751    1.7829    0.0004 C.ar      1 <0>        -0.1396
     19 C13         1.1579    3.1654    0.0075 C.ar      1 <0>        -0.0934
     20 C14        -0.0469    3.8418    0.0222 C.ar      1 <0>        -0.1623
     21 C15        -1.2374    3.1345    0.0298 C.ar      1 <0>         0.1047
     22 F1         -2.4160    3.7948    0.0441 F         1 <0>        -0.1083
     23 C16        -2.8086    0.7468   -2.4618 C.2       1 <0>         0.3769
     24 O2         -2.8733    0.0776   -3.4771 O.2       1 <0>        -0.4029
     25 N5         -2.9474    2.0858   -2.5271 N.am      1 <0>        -0.4278
     26 H2         -2.4042   -3.0471   -2.2780 H         1 <0>         0.0635
     27 H3         -3.5033   -1.8151   -2.9432 H         1 <0>         0.1378
     28 H4         -1.7438   -1.6432   -3.1504 H         1 <0>         0.1315
     29 H5         -2.3296   -1.6011    5.0922 H         1 <0>         0.1057
     30 H6         -2.5139    0.1660    5.1996 H         1 <0>         0.1022
     31 H7         -4.9339   -0.0564    4.7067 H         1 <0>         0.1037
     32 H8         -4.7495   -1.8235    4.5994 H         1 <0>         0.1060
     33 H9         -3.9722   -1.8855    6.9532 H         1 <0>         0.0572
     34 H10        -4.1565   -0.1184    7.0606 H         1 <0>         0.0569
     35 H11        -6.0945   -1.2654    7.8571 H         1 <0>         0.2097
     36 H12        -1.9803   -2.8373   -0.0195 H         1 <0>         0.2714
     37 H13         0.0021   -0.0041    0.0020 H         1 <0>         0.1409
     38 H14         2.1172    1.2550   -0.0114 H         1 <0>         0.1380
     39 H15         2.0865    3.7169    0.0020 H         1 <0>         0.1390
     40 H16        -0.0601    4.9217    0.0274 H         1 <0>         0.1479
     41 H17        -2.8959    2.6187   -1.7183 H         1 <0>         0.2217
     42 H18        -3.0989    2.5165   -3.3830 H         1 <0>         0.2305
@<TRIPOS>BOND
     1    1    2 1
     2    1   26 1
     3    1   27 1
     4    1   28 1
     5    2   15 1
     6    2    3 2
     7    3    4 1
     8    3   23 1
     9    4    5 1
    10    4    6 1
    11    4   16 1
    12    6   10 1
    13    6    7 1
    14    7    8 2
    15    7   15 1
    16    8    9 1
    17    9   10 2
    18    9   11 1
    19   11   12 1
    20   11   29 1
    21   11   30 1
    22   12   13 1
    23   12   31 1
    24   12   32 1
    25   13   14 1
    26   13   33 1
    27   13   34 1
    28   14   35 1
    29   15   36 1
    30   16   21 ar
    31   16   17 ar
    32   17   18 ar
    33   17   37 1
    34   18   19 ar
    35   18   38 1
    36   19   20 ar
    37   19   39 1
    38   20   21 ar
    39   20   40 1
    40   21   22 1
    41   23   24 2
    42   23   25 am
    43   25   41 1
    44   25   42 1
@<TRIPOS>MOLECULE
ZINC04184177
   46    49     0     0     0
SMALL
USER_CHARGES

@<TRIPOS>ATOM
      1 C1         -9.7043   -0.7632    1.0699 C.ar      1 <0>        -0.1175
      2 C2         -9.7338    0.6147    1.1845 C.ar      1 <0>        -0.1155
      3 C3         -8.5757    1.3562    1.0282 C.ar      1 <0>        -0.0825
      4 C4         -7.3722    0.7133    0.7542 C.ar      1 <0>        -0.1064
      5 C5         -7.3418   -0.6878    0.6381 C.ar      1 <0>        -0.1128
      6 C6         -8.5164   -1.4185    0.7983 C.ar      1 <0>        -0.0811
      7 C7         -6.0685   -1.3777    0.3471 C.2       1 <0>         0.3042
      8 O1         -6.0410   -2.5881    0.2469 O.2       1 <0>        -0.2728
      9 C8         -4.8258   -0.5911    0.1781 C.ar      1 <0>        -0.0380
     10 C9         -3.6234   -1.2366   -0.0958 C.ar      1 <0>        -0.1565
     11 C10        -2.4600   -0.5074   -0.2605 C.ar      1 <0>        -0.0438
     12 C11        -2.4747    0.8811   -0.1428 C.ar      1 <0>        -0.2060
     13 C12        -3.6808    1.5500    0.1341 C.ar      1 <0>         0.2169
     14 C13        -4.8603    0.8101    0.2950 C.ar      1 <0>        -0.2182
     15 C14        -6.1302    1.4969    0.5857 C.2       1 <0>         0.3254
     16 O2         -6.1569    2.7081    0.6870 O.2       1 <0>        -0.3081
     17 N1         -3.7026    2.9252    0.2461 N.pl3     1 <0>        -0.3749
     18 C15        -1.2261    1.6501   -0.3148 C.2       1 <0>         0.3603
     19 O3         -1.2177    2.8488   -0.1120 O.2       1 <0>        -0.3894
     20 N2         -0.0957    1.0233   -0.6965 N.am      1 <0>        -0.3814
     21 C16         1.1417    1.7874   -0.8730 C.3       1 <0>         0.0395
     22 C17         1.1708    2.3938   -2.2774 C.3       1 <0>        -0.1733
     23 C18         2.4631    3.1918   -2.4617 C.3       1 <0>        -0.1569
     24 C19         3.6659    2.2633   -2.2820 C.3       1 <0>        -0.1623
     25 C20         3.6368    1.6569   -0.8776 C.3       1 <0>        -0.1541
     26 C21         2.3444    0.8589   -0.6933 C.3       1 <0>        -0.1720
     27 H1        -10.6144   -1.3314    1.1931 H         1 <0>         0.1382
     28 H2        -10.6668    1.1155    1.3970 H         1 <0>         0.1381
     29 H3         -8.6060    2.4320    1.1182 H         1 <0>         0.1563
     30 H4         -8.5002   -2.4948    0.7101 H         1 <0>         0.1557
     31 H5         -3.5998   -2.3126   -0.1850 H         1 <0>         0.1558
     32 H6         -1.5332   -1.0177   -0.4775 H         1 <0>         0.1302
     33 H7         -3.0468    3.4609   -0.2272 H         1 <0>         0.2541
     34 H8         -4.3737    3.3563    0.7981 H         1 <0>         0.2504
     35 H9         -0.1024    0.0669   -0.8583 H         1 <0>         0.2230
     36 H10         1.1848    2.5854   -0.1317 H         1 <0>         0.1228
     37 H11         1.1277    1.5958   -3.0186 H         1 <0>         0.0807
     38 H12         0.3140    3.0553   -2.4053 H         1 <0>         0.0992
     39 H13         2.5063    3.9898   -1.7204 H         1 <0>         0.0867
     40 H14         2.4839    3.6238   -3.4622 H         1 <0>         0.0839
     41 H15         4.5865    2.8318   -2.4133 H         1 <0>         0.0824
     42 H16         3.6227    1.4653   -3.0233 H         1 <0>         0.0814
     43 H17         3.6799    2.4549   -0.1364 H         1 <0>         0.0864
     44 H18         4.4936    0.9954   -0.7497 H         1 <0>         0.0835
     45 H19         2.3237    0.4269    0.3072 H         1 <0>         0.0867
     46 H20         2.3013    0.0609   -1.4346 H         1 <0>         0.0817
@<TRIPOS>BOND
     1    1    6 ar
     2    1    2 ar
     3    1   27 1
     4    2    3 ar
     5    2   28 1
     6    3    4 ar
     7    3   29 1
     8    4   15 1
     9    4    5 ar
    10    5    6 ar
    11    5    7 1
    12    6   30 1
    13    7    8 2
    14    7    9 1
    15    9   14 ar
    16    9   10 ar
    17   10   11 ar
    18   10   31 1
    19   11   12 ar
    20   11   32 1
    21   12   13 ar
    22   12   18 1
    23   13   14 ar
    24   13   17 1
    25   14   15 1
    26   15   16 2
    27   17   33 1
    28   17   34 1
    29   18   19 2
    30   18   20 am
    31   20   21 1
    32   20   35 1
    33   21   26 1
    34   21   22 1
    35   21   36 1
    36   22   23 1
    37   22   37 1
    38   22   38 1
    39   23   24 1
    40   23   39 1
    41   23   40 1
    42   24   25 1
    43   24   41 1
    44   24   42 1
    45   25   26 1
    46   25   43 1
    47   25   44 1
    48   26   45 1
    49   26   46 1
@<TRIPOS>MOLECULE
ZINC04188299
   45    47     0     0     0
SMALL
USER_CHARGES

@<TRIPOS>ATOM
      1 C1         -5.6150   10.0065    1.7688 C.3       1 <0>        -0.2341
      2 C2         -5.6247    9.5536    0.3074 C.3       1 <0>        -0.0246
      3 N1         -5.4171    8.1048    0.2437 N.am      1 <0>        -0.2401
      4 C3         -6.5095    7.2616    0.2756 C.ar      1 <0>         0.1272
      5 C4         -7.8018    7.7674    0.3687 C.ar      1 <0>        -0.1931
      6 C5         -8.8743    6.9019    0.3993 C.ar      1 <0>        -0.0563
      7 C6         -8.6778    5.5296    0.3391 C.ar      1 <0>        -0.1706
      8 C7         -7.4159    5.0118    0.2477 C.ar      1 <0>        -0.0425
      9 C8         -6.3159    5.8709    0.2148 C.ar      1 <0>        -0.1643
     10 C9         -4.9443    5.3489    0.1175 C.2       1 <0>         0.2474
     11 C10        -3.9084    6.2450    0.0959 C.2       1 <0>        -0.2699
     12 C11        -4.1666    7.6207    0.1547 C.2       1 <0>         0.3510
     13 O1         -3.2294    8.4012    0.1293 O.2       1 <0>        -0.3226
     14 N2         -2.5132    5.7587    0.0047 N.pl3     1 <0>         0.5714
     15 O2         -2.2910    4.5712   -0.1500 O.2       1 <0>        -0.3850
     16 O3         -1.5874    6.5462    0.0845 O.3       1 <0>        -0.3091
     17 N3         -4.7069    3.9917    0.0553 N.pl3     1 <0>        -0.3031
     18 C12        -5.2296    3.2378   -1.0011 C.ar      1 <0>         0.0783
     19 C13        -5.1559    1.8510   -0.9678 C.ar      1 <0>        -0.1587
     20 C14        -5.6721    1.1073   -2.0099 C.ar      1 <0>        -0.0874
     21 C15        -6.2655    1.7454   -3.0913 C.ar      1 <0>         0.0273
     22 C16        -6.3345    3.1319   -3.1272 C.ar      1 <0>        -0.1230
     23 C17        -5.8227    3.8758   -2.0830 C.ar      1 <0>        -0.1705
     24 N4         -6.7893    0.9904   -4.1488 N.am      1 <0>        -0.3278
     25 C18        -7.3722   -0.1996   -3.9031 C.2       1 <0>         0.3012
     26 O4         -7.3707   -0.6552   -2.7790 O.2       1 <0>        -0.3589
     27 C19        -8.0260   -0.9643   -5.0251 C.3       1 <0>        -0.2409
     28 H1         -6.4139    9.5007    2.3111 H         1 <0>         0.0773
     29 H2         -4.6548    9.7568    2.2202 H         1 <0>         0.1018
     30 H3         -5.7695   11.0844    1.8162 H         1 <0>         0.0884
     31 H4         -4.8258   10.0593   -0.2350 H         1 <0>         0.1306
     32 H5         -6.5849    9.8033   -0.1440 H         1 <0>         0.0933
     33 H6         -7.9644    8.8340    0.4169 H         1 <0>         0.1482
     34 H7         -9.8773    7.2957    0.4713 H         1 <0>         0.1396
     35 H8         -9.5288    4.8651    0.3641 H         1 <0>         0.1432
     36 H9         -7.2705    3.9426    0.2016 H         1 <0>         0.1569
     37 H10        -4.1775    3.5599    0.7439 H         1 <0>         0.2678
     38 H11        -4.6951    1.3547   -0.1265 H         1 <0>         0.1415
     39 H12        -5.6149    0.0292   -1.9841 H         1 <0>         0.1715
     40 H13        -6.7920    3.6281   -3.9704 H         1 <0>         0.1334
     41 H14        -5.8801    4.9540   -2.1091 H         1 <0>         0.1407
     42 H15        -6.7288    1.3224   -5.0582 H         1 <0>         0.2323
     43 H16        -7.2851   -1.1875   -5.7928 H         1 <0>         0.0962
     44 H17        -8.4395   -1.8954   -4.6376 H         1 <0>         0.1196
     45 H18        -8.8264   -0.3631   -5.4565 H         1 <0>         0.0963
@<TRIPOS>BOND
     1    1    2 1
     2    1   28 1
     3    1   29 1
     4    1   30 1
     5    2    3 1
     6    2   31 1
     7    2   32 1
     8    3   12 am
     9    3    4 1
    10    4    9 ar
    11    4    5 ar
    12    5    6 ar
    13    5   33 1
    14    6    7 ar
    15    6   34 1
    16    7    8 ar
    17    7   35 1
    18    8    9 ar
    19    8   36 1
    20    9   10 1
    21   10   11 2
    22   10   17 1
    23   11   12 1
    24   11   14 1
    25   12   13 2
    26   14   15 2
    27   14   16 1
    28   17   18 1
    29   17   37 1
    30   18   23 ar
    31   18   19 ar
    32   19   20 ar
    33   19   38 1
    34   20   21 ar
    35   20   39 1
    36   21   22 ar
    37   21   24 1
    38   22   23 ar
    39   22   40 1
    40   23   41 1
    41   24   25 am
    42   24   42 1
    43   25   26 2
    44   25   27 1
    45   27   43 1
    46   27   44 1
    47   27   45 1
@<TRIPOS>MOLECULE
ZINC04189180
   44    46     0     0     0
SMALL
USER_CHARGES

@<TRIPOS>ATOM
      1 C1          4.4095    0.9823   -1.3651 C.3       1 <0>        -0.0624
      2 O1          3.1601    1.6631   -1.2321 O.3       1 <0>        -0.2709
      3 C2          2.4329    1.3181   -0.0514 C.3       1 <0>         0.0336
      4 C3          1.1395    2.0906   -0.0143 C.2       1 <0>         0.0929
      5 C4         -0.0161    1.4209   -0.1086 C.2       1 <0>        -0.1888
      6 C5         -1.3365    2.1415   -0.0815 C.3       1 <0>         0.0721
      7 H1         -2.0332    1.5978    0.5565 H         1 <0>         0.1251
      8 C6         -1.1441    3.5327    0.4634 C.2       1 <0>        -0.2633
      9 C7          0.0909    4.0863    0.5260 C.2       1 <0>         0.2613
     10 O2          1.1858    3.4247    0.1123 O.3       1 <0>        -0.1261
     11 N1          0.2281    5.3574    1.0258 N.pl3     1 <0>        -0.3835
     12 C8         -2.2789    4.2803    0.9150 C.1       1 <0>        -0.0611
     13 N2         -3.1791    4.8734    1.2732 N.1       1 <0>        -0.0702
     14 C9         -1.8944    2.2182   -1.4793 C.ar      1 <0>        -0.0718
     15 C10        -1.1513    2.7584   -2.4839 C.ar      1 <0>        -0.1000
     16 C11        -1.6501    2.8374   -3.7825 C.ar      1 <0>        -0.1240
     17 C12        -2.8949    2.3766   -4.0844 C.ar      1 <0>        -0.1131
     18 C13        -3.6913    1.8122   -3.0738 C.ar      1 <0>        -0.0351
     19 C14        -3.1818    1.7271   -1.7538 C.ar      1 <0>        -0.0213
     20 C15        -3.9762    1.1572   -0.7441 C.ar      1 <0>        -0.1212
     21 C16        -5.2185    0.6914   -1.0471 C.ar      1 <0>        -0.1210
     22 C17        -5.7177    0.7709   -2.3460 C.ar      1 <0>        -0.1275
     23 C18        -4.9811    1.3254   -3.3472 C.ar      1 <0>        -0.1145
     24 C19         0.0050    0.0109   -0.2419 C.2       1 <0>         0.3614
     25 O3         -0.2109   -0.6949    0.7252 O.2       1 <0>        -0.3488
     26 O4          0.2646   -0.5495   -1.4415 O.3       1 <0>        -0.2467
     27 C20         0.2699   -1.9772   -1.5031 C.3       1 <0>        -0.0582
     28 H2          5.0463    1.2220   -0.5136 H         1 <0>         0.0574
     29 H3          4.2355   -0.0933   -1.3972 H         1 <0>         0.0590
     30 H4          4.8995    1.2987   -2.2858 H         1 <0>         0.1083
     31 H5          3.0287    1.5648    0.8274 H         1 <0>         0.0874
     32 H6          2.2179    0.2495   -0.0563 H         1 <0>         0.0971
     33 H7          1.1062    5.7663    1.0768 H         1 <0>         0.2308
     34 H8         -0.5531    5.8467    1.3279 H         1 <0>         0.2596
     35 H9         -0.1603    3.1311   -2.2711 H         1 <0>         0.1338
     36 H10        -1.0401    3.2710   -4.5611 H         1 <0>         0.1288
     37 H11        -3.2685    2.4447   -5.0954 H         1 <0>         0.1309
     38 H12        -3.6029    1.0895    0.2671 H         1 <0>         0.1371
     39 H13        -5.8269    0.2540   -0.2693 H         1 <0>         0.1288
     40 H14        -6.7071    0.3941   -2.5596 H         1 <0>         0.1271
     41 H15        -5.3810    1.3803   -4.3489 H         1 <0>         0.1310
     42 H16         0.4912   -2.2961   -2.5216 H         1 <0>         0.1073
     43 H17         1.0306   -2.3672   -0.8269 H         1 <0>         0.0736
     44 H18        -0.7081   -2.3572   -1.2078 H         1 <0>         0.0849
@<TRIPOS>BOND
     1    1    2 1
     2    1   28 1
     3    1   29 1
     4    1   30 1
     5    2    3 1
     6    3    4 1
     7    3   31 1
     8    3   32 1
     9    4   10 1
    10    4    5 2
    11    5    6 1
    12    5   24 1
    13    6    7 1
    14    6    8 1
    15    6   14 1
    16    8    9 2
    17    8   12 1
    18    9   10 1
    19    9   11 1
    20   11   33 1
    21   11   34 1
    22   12   13 3
    23   14   19 ar
    24   14   15 ar
    25   15   16 ar
    26   15   35 1
    27   16   17 ar
    28   16   36 1
    29   17   18 ar
    30   17   37 1
    31   18   23 ar
    32   18   19 ar
    33   19   20 ar
    34   20   21 ar
    35   20   38 1
    36   21   22 ar
    37   21   39 1
    38   22   23 ar
    39   22   40 1
    40   23   41 1
    41   24   25 2
    42   24   26 1
    43   26   27 1
    44   27   42 1
    45   27   43 1
    46   27   44 1
@<TRIPOS>MOLECULE
ZINC04192758
   43    45     0     0     0
SMALL
USER_CHARGES

@<TRIPOS>ATOM
      1 C1         -0.0126    1.0758    0.0080 C.ar      1 <0>        -0.1509
      2 C2         -1.2134    1.7256    0.0173 C.ar      1 <0>        -0.0724
      3 C3         -1.2529    3.1309    0.0299 C.ar      1 <0>        -0.0618
      4 C4         -2.4632    3.8458    0.0443 C.ar      1 <0>        -0.0723
      5 C5         -2.4504    5.2111    0.0506 C.ar      1 <0>        -0.1511
      6 C6         -1.2599    5.9284    0.0440 C.ar      1 <0>        -0.0284
      7 C7         -0.0442    5.2606    0.0298 C.ar      1 <0>        -0.1441
      8 C8         -0.0379    3.8472    0.0226 C.ar      1 <0>         0.0127
      9 C9          1.1957    3.1574    0.0076 C.ar      1 <0>        -0.1441
     10 C10         1.1914    1.7703    0.0002 C.ar      1 <0>        -0.0280
     11 C11         2.4411    3.9388   -0.0001 C.2       1 <0>         0.3592
     12 O1          3.5141    3.3664   -0.0130 O.2       1 <0>        -0.3373
     13 N1          2.4003    5.2847    0.0075 N.am      1 <0>        -0.3011
     14 C12         1.2424    5.9721    0.0218 C.2       1 <0>         0.3595
     15 O2          1.2611    7.1880    0.0286 O.2       1 <0>        -0.3383
     16 C13         3.6622    6.0288   -0.0005 C.3       1 <0>        -0.0238
     17 C14         4.0878    6.2955   -1.4458 C.3       1 <0>        -0.1769
     18 C15         5.4058    7.0726   -1.4542 C.3       1 <0>        -0.1612
     19 C16         5.8313    7.3393   -2.8994 C.3       1 <0>        -0.1433
     20 C17         7.1493    8.1164   -2.9078 C.3       1 <0>        -0.1842
     21 C18         7.5684    8.3791   -4.3313 C.2       1 <0>         0.3015
     22 O3          6.8807    7.9838   -5.2487 O.2       1 <0>        -0.3498
     23 N2          8.7075    9.0534   -4.5848 N.am      1 <0>        -0.3369
     24 N3          9.0874    9.2916   -5.8751 N.3       1 <0>        -0.2127
     25 H1          0.0021   -0.0041    0.0020 H         1 <0>         0.1392
     26 H2         -2.1333    1.1598    0.0186 H         1 <0>         0.1380
     27 H3         -3.4037    3.3148    0.0501 H         1 <0>         0.1380
     28 H4         -3.3882    5.7468    0.0617 H         1 <0>         0.1391
     29 H5         -1.2814    7.0081    0.0500 H         1 <0>         0.1582
     30 H6          2.1257    1.2287   -0.0113 H         1 <0>         0.1585
     31 H7          3.5282    6.9772    0.5197 H         1 <0>         0.1141
     32 H8          4.4321    5.4439    0.5028 H         1 <0>         0.1146
     33 H9          4.2219    5.3471   -1.9660 H         1 <0>         0.0973
     34 H10         3.3180    6.8804   -1.9491 H         1 <0>         0.0963
     35 H11         5.2717    8.0210   -0.9339 H         1 <0>         0.0796
     36 H12         6.1756    6.4877   -0.9508 H         1 <0>         0.0811
     37 H13         5.9654    6.3909   -3.4196 H         1 <0>         0.1036
     38 H14         5.0615    7.9242   -3.4028 H         1 <0>         0.0998
     39 H15         7.0152    9.0648   -2.3876 H         1 <0>         0.0951
     40 H16         7.9191    7.5315   -2.4044 H         1 <0>         0.1010
     41 H17         9.2575    9.3696   -3.8510 H         1 <0>         0.2195
     42 H18         8.3623    9.7767   -6.3819 H         1 <0>         0.1599
     43 H19         9.9560    9.8040   -5.9076 H         1 <0>         0.1527
@<TRIPOS>BOND
     1    1   10 ar
     2    1    2 ar
     3    1   25 1
     4    2    3 ar
     5    2   26 1
     6    3    8 ar
     7    3    4 ar
     8    4    5 ar
     9    4   27 1
    10    5    6 ar
    11    5   28 1
    12    6    7 ar
    13    6   29 1
    14    7   14 1
    15    7    8 ar
    16    8    9 ar
    17    9   10 ar
    18    9   11 1
    19   10   30 1
    20   11   12 2
    21   11   13 am
    22   13   14 am
    23   13   16 1
    24   14   15 2
    25   16   17 1
    26   16   31 1
    27   16   32 1
    28   17   18 1
    29   17   33 1
    30   17   34 1
    31   18   19 1
    32   18   35 1
    33   18   36 1
    34   19   20 1
    35   19   37 1
    36   19   38 1
    37   20   21 1
    38   20   39 1
    39   20   40 1
    40   21   22 2
    41   21   23 am
    42   23   24 1
    43   23   41 1
    44   24   42 1
    45   24   43 1
@<TRIPOS>MOLECULE
ZINC04209900
   39    41     0     0     0
SMALL
USER_CHARGES

@<TRIPOS>ATOM
      1 C1         -2.4790    1.2501    0.0206 C.3       1 <0>        -0.0452
      2 N1         -1.2197    1.9988    0.0187 N.pl3     1 <0>        -0.2901
      3 C2         -1.2385    3.4636    0.0268 C.3       1 <0>        -0.0523
      4 C3         -0.0159    1.3242    0.0093 C.ar      1 <0>         0.2828
      5 N2          1.1288    2.0037    0.0020 N.ar      1 <0>        -0.3482
      6 C4          2.2819    1.3586   -0.0124 C.ar      1 <0>         0.1723
      7 N3          2.3039    0.0372   -0.0197 N.ar      1 <0>        -0.3493
      8 C5          1.1636   -0.6491   -0.0125 C.ar      1 <0>         0.2814
      9 N4          0.0021   -0.0041    0.0020 N.ar      1 <0>        -0.3807
     10 N5          1.1876   -2.0289   -0.0197 N.pl3     1 <0>        -0.3671
     11 C6          3.5755    2.1318   -0.0206 C.3       1 <0>        -0.2157
     12 S1          4.0781    2.4512   -1.7341 S.3       1 <0>         0.3063
     13 C7          5.5853    3.3502   -1.5756 C.2       1 <0>        -0.1705
     14 N6          6.3265    3.8044   -2.5880 N.2       1 <0>        -0.2077
     15 C8          7.3852    4.4324   -2.1168 C.2       1 <0>         0.0634
     16 N7          7.3308    4.3853   -0.7670 N.pl3     1 <0>        -0.1944
     17 H1          7.9732    4.7628   -0.1460 H         1 <0>         0.2739
     18 N8          6.1572    3.6861   -0.4420 N.2       1 <0>        -0.1319
     19 C9          8.4459    5.0760   -2.9232 C.ar      1 <0>        -0.0291
     20 C10         9.5140    5.7153   -2.2933 C.ar      1 <0>        -0.1160
     21 C11        10.5026    6.3090   -3.0509 C.ar      1 <0>        -0.1293
     22 C12        10.4303    6.2811   -4.4321 C.ar      1 <0>        -0.1105
     23 C13         9.3710    5.6533   -5.0627 C.ar      1 <0>        -0.1324
     24 C14         8.3790    5.0509   -4.3164 C.ar      1 <0>        -0.0741
     25 H2         -2.7864    1.0588    1.0487 H         1 <0>         0.0710
     26 H3         -3.2485    1.8322   -0.4864 H         1 <0>         0.0768
     27 H4         -2.3389    0.3022   -0.4991 H         1 <0>         0.1062
     28 H5         -0.2156    3.8401    0.0239 H         1 <0>         0.1234
     29 H6         -1.7611    3.8252   -0.8588 H         1 <0>         0.0714
     30 H7         -1.7527    3.8155    0.9211 H         1 <0>         0.0698
     31 H8          0.3561   -2.5284   -0.0141 H         1 <0>         0.2396
     32 H9          2.0359   -2.4991   -0.0303 H         1 <0>         0.2428
     33 H10         3.4357    3.0794    0.4997 H         1 <0>         0.1360
     34 H11         4.3488    1.5515    0.4827 H         1 <0>         0.1372
     35 H12         9.5690    5.7418   -1.2150 H         1 <0>         0.1224
     36 H13        11.3323    6.8003   -2.5645 H         1 <0>         0.1346
     37 H14        11.2043    6.7511   -5.0207 H         1 <0>         0.1335
     38 H15         9.3202    5.6349   -6.1414 H         1 <0>         0.1381
     39 H16         7.5527    4.5608   -4.8098 H         1 <0>         0.1612
@<TRIPOS>BOND
     1    1    2 1
     2    1   25 1
     3    1   26 1
     4    1   27 1
     5    2    3 1
     6    2    4 1
     7    3   28 1
     8    3   29 1
     9    3   30 1
    10    4    9 ar
    11    4    5 ar
    12    5    6 ar
    13    6    7 ar
    14    6   11 1
    15    7    8 ar
    16    8    9 ar
    17    8   10 1
    18   10   31 1
    19   10   32 1
    20   11   12 1
    21   11   33 1
    22   11   34 1
    23   12   13 1
    24   13   18 2
    25   13   14 1
    26   14   15 2
    27   15   16 1
    28   15   19 1
    29   16   17 1
    30   16   18 1
    31   19   24 ar
    32   19   20 ar
    33   20   21 ar
    34   20   35 1
    35   21   22 ar
    36   21   36 1
    37   22   23 ar
    38   22   37 1
    39   23   24 ar
    40   23   38 1
    41   24   39 1
@<TRIPOS>MOLECULE
ZINC04225006
   44    46     0     0     0
SMALL
USER_CHARGES

@<TRIPOS>ATOM
      1 C1         -4.8168    1.4247   -1.2184 C.3       1 <0>        -0.1754
      2 C2         -3.6167    2.0403   -0.5462 C.ar      1 <0>        -0.1205
      3 C3         -2.4107    1.3671   -0.5326 C.ar      1 <0>        -0.0512
      4 C4         -1.3092    1.9313    0.0839 C.ar      1 <0>        -0.1260
      5 C5         -1.4122    3.1686    0.6933 C.ar      1 <0>        -0.0526
      6 C6         -2.6133    3.8496    0.6780 C.ar      1 <0>        -0.1332
      7 C7         -3.7221    3.2854    0.0599 C.ar      1 <0>         0.1088
      8 N1         -4.9414    3.9699    0.0475 N.pl3     1 <0>        -0.2738
      9 C8         -4.9617    5.3349    0.1584 C.2       1 <0>         0.2057
     10 N2         -6.1526    5.9874    0.2643 N.am      1 <0>        -0.3073
     11 H1         -7.0149    5.4810    0.2587 H         1 <0>         0.2509
     12 C9         -6.1434    7.3356    0.3772 C.2       1 <0>         0.3106
     13 O1         -7.1840    7.9633    0.4786 O.2       1 <0>        -0.3326
     14 C10        -4.8952    7.9962    0.3685 C.2       1 <0>        -0.1859
     15 N3         -3.7942    7.2911    0.2576 N.2       1 <0>         0.0406
     16 N4         -3.8258    6.0106    0.1565 N.2       1 <0>        -0.2013
     17 C11        -4.8284    9.4971    0.4860 C.3       1 <0>        -0.0405
     18 C12        -3.3884    9.9401    0.4508 C.ar      1 <0>        -0.1106
     19 C13        -2.6719   10.0524    1.6280 C.ar      1 <0>        -0.0741
     20 C14        -1.3501   10.4529    1.5979 C.ar      1 <0>        -0.2189
     21 C15        -0.7450   10.7533    0.3862 C.ar      1 <0>         0.0991
     22 C16        -1.4678   10.6453   -0.7931 C.ar      1 <0>        -0.1556
     23 C17        -2.7877   10.2390   -0.7581 C.ar      1 <0>        -0.0758
     24 O2          0.5536   11.1524    0.3544 O.3       1 <0>        -0.2124
     25 C18         1.2359   11.2411    1.6069 C.3       1 <0>        -0.0625
     26 N5         -0.0185    1.2068    0.0970 N.pl3     1 <0>         0.5508
     27 O3          0.0724    0.1149   -0.4350 O.2       1 <0>        -0.3599
     28 O4          0.9540    1.7048    0.6353 O.3       1 <0>        -0.3535
     29 H2         -5.3690    0.8232   -0.4963 H         1 <0>         0.0897
     30 H3         -5.4625    2.2140   -1.6032 H         1 <0>         0.0771
     31 H4         -4.4869    0.7915   -2.0420 H         1 <0>         0.1013
     32 H5         -2.3281    0.3988   -1.0038 H         1 <0>         0.1687
     33 H6         -0.5511    3.6044    1.1782 H         1 <0>         0.1725
     34 H7         -2.6920    4.8175    1.1506 H         1 <0>         0.1956
     35 H8         -5.7729    3.4779   -0.0396 H         1 <0>         0.2503
     36 H9         -5.3686    9.9510   -0.3448 H         1 <0>         0.1115
     37 H10        -5.2814    9.8083    1.4273 H         1 <0>         0.1103
     38 H11        -3.1447    9.8226    2.5714 H         1 <0>         0.1279
     39 H12        -0.7896   10.5362    2.5173 H         1 <0>         0.1338
     40 H13        -0.9991   10.8790   -1.7376 H         1 <0>         0.1430
     41 H14        -3.3507   10.1544   -1.6759 H         1 <0>         0.1325
     42 H15         2.2616   11.5699    1.4394 H         1 <0>         0.1073
     43 H16         0.7248   11.9583    2.2491 H         1 <0>         0.0667
     44 H17         1.2418   10.2628    2.0875 H         1 <0>         0.0690
@<TRIPOS>BOND
     1    1    2 1
     2    1   29 1
     3    1   30 1
     4    1   31 1
     5    2    7 ar
     6    2    3 ar
     7    3    4 ar
     8    3   32 1
     9    4    5 ar
    10    4   26 1
    11    5    6 ar
    12    5   33 1
    13    6    7 ar
    14    6   34 1
    15    7    8 1
    16    8    9 1
    17    8   35 1
    18    9   16 2
    19    9   10 1
    20   10   11 1
    21   10   12 am
    22   12   13 2
    23   12   14 1
    24   14   15 2
    25   14   17 1
    26   15   16 1
    27   17   18 1
    28   17   36 1
    29   17   37 1
    30   18   23 ar
    31   18   19 ar
    32   19   20 ar
    33   19   38 1
    34   20   21 ar
    35   20   39 1
    36   21   22 ar
    37   21   24 1
    38   22   23 ar
    39   22   40 1
    40   23   41 1
    41   24   25 1
    42   25   42 1
    43   25   43 1
    44   25   44 1
    45   26   27 2
    46   26   28 1
@<TRIPOS>MOLECULE
ZINC04225006
   44    46     0     0     0
SMALL
USER_CHARGES

@<TRIPOS>ATOM
      1 C1         -4.8167    1.4252   -1.2205 C.3       1 <0>        -0.1788
      2 C2         -3.6167    2.0405   -0.5478 C.ar      1 <0>        -0.1172
      3 C3         -2.4107    1.3673   -0.5342 C.ar      1 <0>        -0.0284
      4 C4         -1.3093    1.9313    0.0827 C.ar      1 <0>        -0.1361
      5 C5         -1.4124    3.1684    0.6925 C.ar      1 <0>        -0.0271
      6 C6         -2.6135    3.8494    0.6772 C.ar      1 <0>        -0.2386
      7 C7         -3.7222    3.2855    0.0587 C.ar      1 <0>         0.1118
      8 N1         -4.9415    3.9700    0.0462 N.pl3     1 <0>        -0.2666
      9 C8         -4.9617    5.3350    0.1575 C.2       1 <0>         0.2217
     10 N2         -6.1526    5.9875    0.2634 N.2       1 <0>        -0.3269
     11 H1         -2.9640    5.5093    0.0794 H         1 <0>         0.3069
     12 C9         -6.1434    7.3356    0.3767 C.2       1 <0>         0.2807
     13 O1         -7.1840    7.9633    0.4781 O.2       1 <0>        -0.3073
     14 C10        -4.8947    7.9953    0.3790 C.2       1 <0>        -0.1511
     15 N3         -3.7937    7.2903    0.2677 N.2       1 <0>        -0.0194
     16 N4         -3.8256    6.0102    0.1615 N.pl3     1 <0>        -0.2230
     17 C11        -4.8277    9.4957    0.5024 C.3       1 <0>        -0.0465
     18 C12        -3.3875    9.9384    0.4720 C.ar      1 <0>        -0.1161
     19 C13        -2.6734   10.0459    1.6511 C.ar      1 <0>        -0.0778
     20 C14        -1.3514   10.4460    1.6254 C.ar      1 <0>        -0.2207
     21 C15        -0.7437   10.7509    0.4162 C.ar      1 <0>         0.0967
     22 C16        -1.4640   10.6477   -0.7651 C.ar      1 <0>        -0.1576
     23 C17        -2.7841   10.2418   -0.7345 C.ar      1 <0>        -0.0802
     24 O2          0.5552   11.1497    0.3887 O.3       1 <0>        -0.2123
     25 C18         1.2348   11.2333    1.6429 C.3       1 <0>        -0.0626
     26 N5         -0.0187    1.2067    0.0958 N.pl3     1 <0>         0.5511
     27 O3          0.0723    0.1150   -0.4365 O.2       1 <0>        -0.3496
     28 O4          0.9537    1.7045    0.6345 O.3       1 <0>        -0.3499
     29 H2         -5.3691    0.8235   -0.4987 H         1 <0>         0.0990
     30 H3         -5.4623    2.2146   -1.6051 H         1 <0>         0.0910
     31 H4         -4.4866    0.7922   -2.0442 H         1 <0>         0.1018
     32 H5         -2.3281    0.3992   -1.0057 H         1 <0>         0.1756
     33 H6         -0.5514    3.6040    1.1777 H         1 <0>         0.1750
     34 H7         -2.6923    4.8172    1.1500 H         1 <0>         0.1736
     35 H8         -5.7730    3.4781   -0.0412 H         1 <0>         0.2811
     36 H9         -5.3660    9.9531   -0.3278 H         1 <0>         0.1209
     37 H10        -5.2826    9.8035    1.4440 H         1 <0>         0.1199
     38 H11        -3.1483    9.8126    2.5926 H         1 <0>         0.1303
     39 H12        -0.7929   10.5256    2.5463 H         1 <0>         0.1346
     40 H13        -0.9932   10.8849   -1.7077 H         1 <0>         0.1436
     41 H14        -3.3452   10.1609   -1.6538 H         1 <0>         0.1345
     42 H15         2.2610   11.5624    1.4789 H         1 <0>         0.1085
     43 H16         0.7226   11.9482    2.2868 H         1 <0>         0.0687
     44 H17         1.2394   10.2531    2.1198 H         1 <0>         0.0668
@<TRIPOS>BOND
     1    1    2 1
     2    1   29 1
     3    1   30 1
     4    1   31 1
     5    2    7 ar
     6    2    3 ar
     7    3    4 ar
     8    3   32 1
     9    4    5 ar
    10    4   26 1
    11    5    6 ar
    12    5   33 1
    13    6    7 ar
    14    6   34 1
    15    7    8 1
    16    8    9 1
    17    8   35 1
    18    9   16 1
    19    9   10 2
    20   10   12 1
    21   11   16 1
    22   12   13 2
    23   12   14 1
    24   14   17 1
    25   14   15 2
    26   15   16 1
    27   17   18 1
    28   17   36 1
    29   17   37 1
    30   18   23 ar
    31   18   19 ar
    32   19   20 ar
    33   19   38 1
    34   20   21 ar
    35   20   39 1
    36   21   22 ar
    37   21   24 1
    38   22   23 ar
    39   22   40 1
    40   23   41 1
    41   24   25 1
    42   25   42 1
    43   25   43 1
    44   25   44 1
    45   26   27 2
    46   26   28 1
@<TRIPOS>MOLECULE
ZINC04225006
   44    46     0     0     0
SMALL
USER_CHARGES

@<TRIPOS>ATOM
      1 C1         -4.8171    1.4252   -1.2206 C.3       1 <0>        -0.1756
      2 C2         -3.6169    2.0406   -0.5484 C.ar      1 <0>        -0.1237
      3 C3         -2.4109    1.3674   -0.5352 C.ar      1 <0>        -0.0504
      4 C4         -1.3093    1.9314    0.0813 C.ar      1 <0>        -0.1330
      5 C5         -1.4122    3.1685    0.6911 C.ar      1 <0>        -0.0533
      6 C6         -2.6133    3.8495    0.6762 C.ar      1 <0>        -0.1416
      7 C7         -3.7222    3.2855    0.0581 C.ar      1 <0>         0.1150
      8 N1         -4.9415    3.9700    0.0462 N.pl3     1 <0>        -0.2453
      9 C8         -4.9617    5.3350    0.1575 C.ar      1 <0>         0.1801
     10 N2         -6.1526    5.9874    0.2643 N.ar      1 <0>        -0.2871
     11 H1         -6.9786    8.9390    0.5550 H         1 <0>         0.2793
     12 C9         -6.1434    7.3356    0.3772 C.ar      1 <0>         0.2201
     13 O1         -7.1838    7.9629    0.4835 O.3       1 <0>        -0.1654
     14 C10        -4.8947    7.9953    0.3789 C.ar      1 <0>        -0.2977
     15 N3         -3.7938    7.2903    0.2672 N.ar      1 <0>         0.0746
     16 N4         -3.8256    6.0103    0.1607 N.ar      1 <0>        -0.2046
     17 C11        -4.8277    9.4958    0.5023 C.3       1 <0>        -0.0614
     18 C12        -3.3874    9.9384    0.4719 C.ar      1 <0>        -0.1045
     19 C13        -2.6734   10.0459    1.6510 C.ar      1 <0>        -0.0719
     20 C14        -1.3514   10.4460    1.6253 C.ar      1 <0>        -0.2170
     21 C15        -0.7436   10.7509    0.4160 C.ar      1 <0>         0.1035
     22 C16        -1.4640   10.6477   -0.7652 C.ar      1 <0>        -0.1535
     23 C17        -2.7841   10.2417   -0.7346 C.ar      1 <0>        -0.0740
     24 O2          0.5552   11.1497    0.3885 O.3       1 <0>        -0.2105
     25 C18         1.2348   11.2333    1.6428 C.3       1 <0>        -0.0632
     26 N5         -0.0186    1.2069    0.0939 N.pl3     1 <0>         0.5521
     27 O3          0.0722    0.1152   -0.4385 O.2       1 <0>        -0.3633
     28 O4          0.9540    1.7047    0.6322 O.3       1 <0>        -0.3588
     29 H2         -5.3692    0.8235   -0.4986 H         1 <0>         0.0899
     30 H3         -5.4629    2.2147   -1.6050 H         1 <0>         0.0836
     31 H4         -4.4873    0.7923   -2.0445 H         1 <0>         0.0968
     32 H5         -2.3284    0.3993   -1.0068 H         1 <0>         0.1666
     33 H6         -0.5510    3.6041    1.1760 H         1 <0>         0.1687
     34 H7         -2.6919    4.8172    1.1492 H         1 <0>         0.1917
     35 H8         -5.7730    3.4780   -0.0409 H         1 <0>         0.2635
     36 H9         -5.3660    9.9530   -0.3278 H         1 <0>         0.0917
     37 H10        -5.2826    9.8035    1.4439 H         1 <0>         0.0906
     38 H11        -3.1483    9.8126    2.5925 H         1 <0>         0.1276
     39 H12        -0.7928   10.5256    2.5462 H         1 <0>         0.1363
     40 H13        -0.9932   10.8849   -1.7078 H         1 <0>         0.1456
     41 H14        -3.3452   10.1609   -1.6539 H         1 <0>         0.1321
     42 H15         2.2610   11.5624    1.4787 H         1 <0>         0.1093
     43 H16         0.7226   11.9482    2.2867 H         1 <0>         0.0665
     44 H17         1.2394   10.2531    2.1196 H         1 <0>         0.0708
@<TRIPOS>BOND
     1    1    2 1
     2    1   29 1
     3    1   30 1
     4    1   31 1
     5    2    7 ar
     6    2    3 ar
     7    3    4 ar
     8    3   32 1
     9    4    5 ar
    10    4   26 1
    11    5    6 ar
    12    5   33 1
    13    6    7 ar
    14    6   34 1
    15    7    8 1
    16    8    9 1
    17    8   35 1
    18    9   16 ar
    19    9   10 ar
    20   10   12 ar
    21   11   13 1
    22   12   13 1
    23   12   14 ar
    24   14   17 1
    25   14   15 ar
    26   15   16 ar
    27   17   18 1
    28   17   36 1
    29   17   37 1
    30   18   23 ar
    31   18   19 ar
    32   19   20 ar
    33   19   38 1
    34   20   21 ar
    35   20   39 1
    36   21   22 ar
    37   21   24 1
    38   22   23 ar
    39   22   40 1
    40   23   41 1
    41   24   25 1
    42   25   42 1
    43   25   43 1
    44   25   44 1
    45   26   27 2
    46   26   28 1
@<TRIPOS>MOLECULE
ZINC04225008
   44    46     0     0     0
SMALL
USER_CHARGES

@<TRIPOS>ATOM
      1 C1          8.1351    4.0558   -1.0320 C.3       1 <0>        -0.2535
      2 C2          8.2176    2.6539   -0.4853 C.2       1 <0>         0.2677
      3 O1          9.2884    2.1984   -0.1430 O.2       1 <0>        -0.2940
      4 C3          7.0018    1.8394   -0.3669 C.ar      1 <0>        -0.1728
      5 C4          7.0561    0.5812    0.2463 C.ar      1 <0>        -0.0491
      6 C5          5.9225   -0.1729    0.3546 C.ar      1 <0>        -0.1747
      7 C6          4.7139    0.3075   -0.1429 C.ar      1 <0>         0.0912
      8 C7          4.6563    1.5554   -0.7583 C.ar      1 <0>        -0.1311
      9 C8          5.7839    2.3185   -0.8664 C.ar      1 <0>        -0.0705
     10 N1          3.5611   -0.4642   -0.0299 N.pl3     1 <0>        -0.2762
     11 C9          2.3442    0.1427    0.1422 C.2       1 <0>         0.2088
     12 N2          1.2082   -0.6083    0.1438 N.am      1 <0>        -0.3087
     13 H1          1.2510   -1.5998    0.0207 H         1 <0>         0.2498
     14 C10         0.0205    0.0164    0.3156 C.2       1 <0>         0.3117
     15 O2         -1.0236   -0.6136    0.3248 O.2       1 <0>        -0.3389
     16 C11         0.0237    1.4187    0.4846 C.2       1 <0>        -0.1968
     17 N3          1.1648    2.0662    0.4700 N.2       1 <0>         0.0425
     18 N4          2.2814    1.4525    0.3049 N.2       1 <0>        -0.1995
     19 C12        -1.2718    2.1650    0.6735 C.3       1 <0>        -0.0392
     20 C13        -0.9859    3.6364    0.8292 C.ar      1 <0>        -0.1068
     21 C14        -0.7699    4.1682    2.0871 C.ar      1 <0>        -0.0726
     22 C15        -0.5020    5.5156    2.2320 C.ar      1 <0>        -0.2180
     23 C16        -0.4610    6.3375    1.1150 C.ar      1 <0>         0.0966
     24 C17        -0.6836    5.8025   -0.1455 C.ar      1 <0>        -0.1571
     25 C18        -0.9455    4.4533   -0.2855 C.ar      1 <0>        -0.0775
     26 O3         -0.2026    7.6643    1.2554 O.3       1 <0>        -0.2140
     27 C19         0.0167    8.1457    2.5829 C.3       1 <0>        -0.0623
     28 H2          7.2013    4.2394   -1.3390 H         1 <0>         0.0823
     29 H3          8.4075    4.7667   -0.2519 H         1 <0>         0.1099
     30 H4          8.8209    4.1588   -1.8729 H         1 <0>         0.1073
     31 H5          7.9929    0.2081    0.6331 H         1 <0>         0.1570
     32 H6          5.9635   -1.1432    0.8272 H         1 <0>         0.1343
     33 H7          3.7178    1.9221   -1.1471 H         1 <0>         0.1690
     34 H8          5.7375    3.2881   -1.3399 H         1 <0>         0.1443
     35 H9          3.6189   -1.4315   -0.0729 H         1 <0>         0.2455
     36 H10        -1.9110    2.0090   -0.1955 H         1 <0>         0.1090
     37 H11        -1.7765    1.7964    1.5666 H         1 <0>         0.1093
     38 H12        -0.8064    3.5288    2.9567 H         1 <0>         0.1292
     39 H13        -0.3291    5.9298    3.2143 H         1 <0>         0.1333
     40 H14        -0.6525    6.4402   -1.0165 H         1 <0>         0.1412
     41 H15        -1.1185    4.0363   -1.2666 H         1 <0>         0.1317
     42 H16        -0.8682    7.9537    3.1897 H         1 <0>         0.0669
     43 H17         0.8742    7.6327    3.0183 H         1 <0>         0.0689
     44 H18         0.2113    9.2177    2.5531 H         1 <0>         0.1059
@<TRIPOS>BOND
     1    1    2 1
     2    1   28 1
     3    1   29 1
     4    1   30 1
     5    2    3 2
     6    2    4 1
     7    4    9 ar
     8    4    5 ar
     9    5    6 ar
    10    5   31 1
    11    6    7 ar
    12    6   32 1
    13    7    8 ar
    14    7   10 1
    15    8    9 ar
    16    8   33 1
    17    9   34 1
    18   10   11 1
    19   10   35 1
    20   11   18 2
    21   11   12 1
    22   12   13 1
    23   12   14 am
    24   14   15 2
    25   14   16 1
    26   16   17 2
    27   16   19 1
    28   17   18 1
    29   19   20 1
    30   19   36 1
    31   19   37 1
    32   20   25 ar
    33   20   21 ar
    34   21   22 ar
    35   21   38 1
    36   22   23 ar
    37   22   39 1
    38   23   24 ar
    39   23   26 1
    40   24   25 ar
    41   24   40 1
    42   25   41 1
    43   26   27 1
    44   27   42 1
    45   27   43 1
    46   27   44 1
@<TRIPOS>MOLECULE
ZINC04225008
   44    46     0     0     0
SMALL
USER_CHARGES

@<TRIPOS>ATOM
      1 C1          8.1386    4.0498   -1.0236 C.3       1 <0>        -0.2533
      2 C2          8.2199    2.6502   -0.4706 C.2       1 <0>         0.2658
      3 O1          9.2899    2.1963   -0.1238 O.2       1 <0>        -0.2844
      4 C3          7.0038    1.8362   -0.3517 C.ar      1 <0>        -0.1788
      5 C4          7.0567    0.5806    0.2670 C.ar      1 <0>        -0.0294
      6 C5          5.9229   -0.1731    0.3758 C.ar      1 <0>        -0.1721
      7 C6          4.7155    0.3051   -0.1267 C.ar      1 <0>         0.0883
      8 C7          4.6593    1.5503   -0.7476 C.ar      1 <0>        -0.2285
      9 C8          5.7871    2.3130   -0.8562 C.ar      1 <0>        -0.0506
     10 N1          3.5624   -0.4662   -0.0132 N.pl3     1 <0>        -0.2719
     11 C9          2.3451    0.1414    0.1533 C.2       1 <0>         0.2271
     12 N2          1.2091   -0.6097    0.1554 N.2       1 <0>        -0.3317
     13 H1          3.1290    1.9829    0.2964 H         1 <0>         0.2992
     14 C10         0.0210    0.0157    0.3216 C.2       1 <0>         0.2813
     15 O2         -1.0231   -0.6143    0.3310 O.2       1 <0>        -0.3137
     16 C11         0.0247    1.4173    0.4968 C.2       1 <0>        -0.1562
     17 N3          1.1657    2.0648    0.4817 N.2       1 <0>        -0.0193
     18 N4          2.2819    1.4518    0.3108 N.pl3     1 <0>        -0.2129
     19 C12        -1.2703    2.1627    0.6926 C.3       1 <0>        -0.0459
     20 C13        -0.9839    3.6334    0.8539 C.ar      1 <0>        -0.1131
     21 C14        -0.7643    4.1598    2.1135 C.ar      1 <0>        -0.0767
     22 C15        -0.4960    5.5065    2.2635 C.ar      1 <0>        -0.2200
     23 C16        -0.4581    6.3333    1.1499 C.ar      1 <0>         0.0945
     24 C17        -0.6844    5.8037   -0.1122 C.ar      1 <0>        -0.1588
     25 C18        -0.9467    4.4552   -0.2573 C.ar      1 <0>        -0.0812
     26 O3         -0.1993    7.6595    1.2953 O.3       1 <0>        -0.2137
     27 C19         0.0238    8.1351    2.6243 C.3       1 <0>        -0.0624
     28 H2          7.2056    4.2320   -1.3336 H         1 <0>         0.0792
     29 H3          8.4091    4.7640   -0.2458 H         1 <0>         0.1120
     30 H4          8.8265    4.1492   -1.8632 H         1 <0>         0.1124
     31 H5          7.9926    0.2092    0.6577 H         1 <0>         0.1640
     32 H6          5.9628   -1.1414    0.8526 H         1 <0>         0.1489
     33 H7          3.7217    1.9153   -1.1402 H         1 <0>         0.1538
     34 H8          5.7418    3.2806   -1.3340 H         1 <0>         0.1476
     35 H9          3.6204   -1.4336   -0.0519 H         1 <0>         0.2774
     36 H10        -1.9120    2.0105   -0.1752 H         1 <0>         0.1194
     37 H11        -1.7724    1.7903    1.5856 H         1 <0>         0.1195
     38 H12        -0.7983    3.5166    2.9804 H         1 <0>         0.1313
     39 H13        -0.3202    5.9165    3.2470 H         1 <0>         0.1341
     40 H14        -0.6558    6.4452   -0.9806 H         1 <0>         0.1421
     41 H15        -1.1225    4.0424   -1.2397 H         1 <0>         0.1341
     42 H16        -0.8594    7.9405    3.2328 H         1 <0>         0.0690
     43 H17         0.8825    7.6202    3.0550 H         1 <0>         0.0666
     44 H18         0.2183    9.2072    2.5986 H         1 <0>         0.1072
@<TRIPOS>BOND
     1    1    2 1
     2    1   28 1
     3    1   29 1
     4    1   30 1
     5    2    3 2
     6    2    4 1
     7    4    9 ar
     8    4    5 ar
     9    5    6 ar
    10    5   31 1
    11    6    7 ar
    12    6   32 1
    13    7    8 ar
    14    7   10 1
    15    8    9 ar
    16    8   33 1
    17    9   34 1
    18   10   11 1
    19   10   35 1
    20   11   18 1
    21   11   12 2
    22   12   14 1
    23   13   18 1
    24   14   15 2
    25   14   16 1
    26   16   19 1
    27   16   17 2
    28   17   18 1
    29   19   20 1
    30   19   36 1
    31   19   37 1
    32   20   25 ar
    33   20   21 ar
    34   21   22 ar
    35   21   38 1
    36   22   23 ar
    37   22   39 1
    38   23   24 ar
    39   23   26 1
    40   24   25 ar
    41   24   40 1
    42   25   41 1
    43   26   27 1
    44   27   42 1
    45   27   43 1
    46   27   44 1
@<TRIPOS>MOLECULE
ZINC04225008
   44    46     0     0     0
SMALL
USER_CHARGES

@<TRIPOS>ATOM
      1 C1          8.1440    4.0510   -0.9923 C.3       1 <0>        -0.2540
      2 C2          8.2230    2.6491   -0.4452 C.2       1 <0>         0.2691
      3 O1          9.2918    2.1929   -0.0976 O.2       1 <0>        -0.2979
      4 C3          7.0061    1.8353   -0.3327 C.ar      1 <0>        -0.1810
      5 C4          7.0567    0.5770    0.2807 C.ar      1 <0>        -0.0477
      6 C5          5.9221   -0.1764    0.3835 C.ar      1 <0>        -0.1789
      7 C6          4.7163    0.3047   -0.1199 C.ar      1 <0>         0.0991
      8 C7          4.6624    1.5527   -0.7356 C.ar      1 <0>        -0.1394
      9 C8          5.7910    2.3151   -0.8382 C.ar      1 <0>        -0.0705
     10 N1          3.5625   -0.4663   -0.0126 N.pl3     1 <0>        -0.2489
     11 C9          2.3451    0.1413    0.1536 C.ar      1 <0>         0.1830
     12 N2          1.2082   -0.6083    0.1438 N.ar      1 <0>        -0.2900
     13 H1         -1.7902    0.0137    0.4622 H         1 <0>         0.2771
     14 C10         0.0205    0.0164    0.3156 C.ar      1 <0>         0.2180
     15 O2         -1.0236   -0.6135    0.3243 O.3       1 <0>        -0.1675
     16 C11         0.0247    1.4171    0.4974 C.ar      1 <0>        -0.3061
     17 N3          1.1662    2.0640    0.4879 N.ar      1 <0>         0.0735
     18 N4          2.2827    1.4504    0.3221 N.ar      1 <0>        -0.2007
     19 C12        -1.2703    2.1624    0.6936 C.3       1 <0>        -0.0602
     20 C13        -0.9840    3.6331    0.8552 C.ar      1 <0>        -0.1007
     21 C14        -0.7642    4.1592    2.1148 C.ar      1 <0>        -0.0704
     22 C15        -0.4959    5.5059    2.2651 C.ar      1 <0>        -0.2161
     23 C16        -0.4583    6.3329    1.1517 C.ar      1 <0>         0.1010
     24 C17        -0.6847    5.8037   -0.1105 C.ar      1 <0>        -0.1550
     25 C18        -0.9469    4.4551   -0.2559 C.ar      1 <0>        -0.0755
     26 O3         -0.1995    7.6591    1.2974 O.3       1 <0>        -0.2122
     27 C19         0.0238    8.1344    2.6264 C.3       1 <0>        -0.0630
     28 H2          7.2118    4.2352   -1.3039 H         1 <0>         0.0821
     29 H3          8.4130    4.7617   -0.2109 H         1 <0>         0.1079
     30 H4          8.8340    4.1536   -1.8298 H         1 <0>         0.1057
     31 H5          7.9914    0.2034    0.6721 H         1 <0>         0.1546
     32 H6          5.9602   -1.1467    0.8563 H         1 <0>         0.1361
     33 H7          3.7260    1.9199   -1.1290 H         1 <0>         0.1649
     34 H8          5.7475    3.2847   -1.3119 H         1 <0>         0.1403
     35 H9          3.6199   -1.4336   -0.0553 H         1 <0>         0.2591
     36 H10        -1.9121    2.0104   -0.1742 H         1 <0>         0.0893
     37 H11        -1.7723    1.7897    1.5865 H         1 <0>         0.0898
     38 H12        -0.7981    3.5158    2.9816 H         1 <0>         0.1289
     39 H13        -0.3201    5.9156    3.2487 H         1 <0>         0.1358
     40 H14        -0.6562    6.4453   -0.9787 H         1 <0>         0.1437
     41 H15        -1.1229    4.0426   -1.2384 H         1 <0>         0.1314
     42 H16        -0.8593    7.9396    3.2350 H         1 <0>         0.0667
     43 H17         0.8826    7.6195    3.0569 H         1 <0>         0.0706
     44 H18         0.2182    9.2066    2.6009 H         1 <0>         0.1078
@<TRIPOS>BOND
     1    1    2 1
     2    1   28 1
     3    1   29 1
     4    1   30 1
     5    2    3 2
     6    2    4 1
     7    4    9 ar
     8    4    5 ar
     9    5    6 ar
    10    5   31 1
    11    6    7 ar
    12    6   32 1
    13    7    8 ar
    14    7   10 1
    15    8    9 ar
    16    8   33 1
    17    9   34 1
    18   10   11 1
    19   10   35 1
    20   11   18 ar
    21   11   12 ar
    22   12   14 ar
    23   13   15 1
    24   14   15 1
    25   14   16 ar
    26   16   19 1
    27   16   17 ar
    28   17   18 ar
    29   19   20 1
    30   19   36 1
    31   19   37 1
    32   20   25 ar
    33   20   21 ar
    34   21   22 ar
    35   21   38 1
    36   22   23 ar
    37   22   39 1
    38   23   24 ar
    39   23   26 1
    40   24   25 ar
    41   24   40 1
    42   25   41 1
    43   26   27 1
    44   27   42 1
    45   27   43 1
    46   27   44 1
@<TRIPOS>MOLECULE
ZINC04225010
   40    42     0     0     0
SMALL
USER_CHARGES

@<TRIPOS>ATOM
      1 C1         -0.1274    8.4492    0.6199 C.3       1 <0>        -0.0621
      2 O1         -0.3889    7.6596   -0.5420 O.3       1 <0>        -0.2133
      3 C2         -0.6124    6.3331   -0.3490 C.ar      1 <0>         0.0967
      4 C3         -0.8727    5.5073   -1.4330 C.ar      1 <0>        -0.1556
      5 C4         -1.0992    4.1592   -1.2342 C.ar      1 <0>        -0.0755
      6 C5         -1.0667    3.6326    0.0439 C.ar      1 <0>        -0.1071
      7 C6         -0.8131    4.4545    1.1265 C.ar      1 <0>        -0.0745
      8 C7         -0.5803    5.8023    0.9324 C.ar      1 <0>        -0.2194
      9 C8         -1.3141    2.1616    0.2579 C.3       1 <0>        -0.0396
     10 C9         -0.0058    1.4169    0.1890 C.2       1 <0>        -0.1941
     11 C10         0.0264    0.0153    0.3598 C.2       1 <0>         0.3115
     12 O2         -0.9968   -0.6143    0.5695 O.2       1 <0>        -0.3368
     13 N1          1.2240   -0.6095    0.2839 N.am      1 <0>        -0.3067
     14 H1          1.2915   -1.6006    0.3989 H         1 <0>         0.2523
     15 C11         2.3357    0.1410    0.0474 C.2       1 <0>         0.2101
     16 N2          2.2401    1.4503   -0.1033 N.2       1 <0>        -0.2020
     17 N3          1.1134    2.0639   -0.0355 N.2       1 <0>         0.0417
     18 N4          3.5617   -0.4658   -0.0345 N.pl3     1 <0>        -0.2751
     19 C12         4.7151    0.3069   -0.1465 C.ar      1 <0>         0.1059
     20 C13         4.7766    1.5590    0.4501 C.ar      1 <0>        -0.1228
     21 C14         5.9225    2.3212    0.3419 C.ar      1 <0>        -0.0841
     22 C15         7.0140    1.8497   -0.3695 C.ar      1 <0>        -0.1457
     23 C16         6.9694    0.6114   -0.9728 C.ar      1 <0>        -0.0710
     24 C17         5.8187   -0.1738   -0.8677 C.ar      1 <0>        -0.0525
     25 C18         5.7655   -1.4612   -1.4925 C.1       1 <0>        -0.0936
     26 N5          5.7233   -2.4825   -1.9882 N.1       1 <0>        -0.0386
     27 H2         -0.9790    8.3914    1.2977 H         1 <0>         0.0668
     28 H3          0.7633    8.0722    1.1225 H         1 <0>         0.0678
     29 H4          0.0331    9.4865    0.3257 H         1 <0>         0.1060
     30 H5         -0.8986    5.9182   -2.4315 H         1 <0>         0.1422
     31 H6         -1.3015    3.5159   -2.0778 H         1 <0>         0.1333
     32 H7         -0.7929    4.0416    2.1242 H         1 <0>         0.1280
     33 H8         -0.3779    6.4430    1.7779 H         1 <0>         0.1325
     34 H9         -1.9851    1.7896   -0.5164 H         1 <0>         0.1106
     35 H10        -1.7684    2.0082    1.2368 H         1 <0>         0.1089
     36 H11         3.6262   -1.4335   -0.0144 H         1 <0>         0.2513
     37 H12         3.9285    1.9356    1.0025 H         1 <0>         0.1747
     38 H13         5.9670    3.2929    0.8112 H         1 <0>         0.1434
     39 H14         7.9041    2.4558   -0.4519 H         1 <0>         0.1408
     40 H15         7.8228    0.2486   -1.5264 H         1 <0>         0.1459
@<TRIPOS>BOND
     1    1    2 1
     2    1   27 1
     3    1   28 1
     4    1   29 1
     5    2    3 1
     6    3    8 ar
     7    3    4 ar
     8    4    5 ar
     9    4   30 1
    10    5    6 ar
    11    5   31 1
    12    6    7 ar
    13    6    9 1
    14    7    8 ar
    15    7   32 1
    16    8   33 1
    17    9   10 1
    18    9   34 1
    19    9   35 1
    20   10   17 2
    21   10   11 1
    22   11   12 2
    23   11   13 am
    24   13   14 1
    25   13   15 1
    26   15   16 2
    27   15   18 1
    28   16   17 1
    29   18   19 1
    30   18   36 1
    31   19   24 ar
    32   19   20 ar
    33   20   21 ar
    34   20   37 1
    35   21   22 ar
    36   21   38 1
    37   22   23 ar
    38   22   39 1
    39   23   24 ar
    40   23   40 1
    41   24   25 1
    42   25   26 3
@<TRIPOS>MOLECULE
ZINC04225010
   40    42     0     0     0
SMALL
USER_CHARGES

@<TRIPOS>ATOM
      1 C1         -0.1199    8.4490    0.6543 C.3       1 <0>        -0.0622
      2 O1         -0.3847    7.6636   -0.5097 O.3       1 <0>        -0.2132
      3 C2         -0.6088    6.3366   -0.3207 C.ar      1 <0>         0.0946
      4 C3         -0.8722    5.5148   -1.4070 C.ar      1 <0>        -0.1576
      5 C4         -1.0992    4.1662   -1.2123 C.ar      1 <0>        -0.0798
      6 C5         -1.0641    3.6351    0.0639 C.ar      1 <0>        -0.1134
      7 C6         -0.8074    4.4531    1.1487 C.ar      1 <0>        -0.0781
      8 C7         -0.5741    5.8014    0.9587 C.ar      1 <0>        -0.2211
      9 C8         -1.3121    2.1636    0.2734 C.3       1 <0>        -0.0462
     10 C9         -0.0045    1.4182    0.1989 C.2       1 <0>        -0.1547
     11 C10         0.0271    0.0160    0.3655 C.2       1 <0>         0.2809
     12 O2         -0.9961   -0.6136    0.5753 O.2       1 <0>        -0.3110
     13 N1          1.2254   -0.6081    0.2948 N.2       1 <0>        -0.3259
     14 H1          3.0701    1.9796   -0.2790 H         1 <0>         0.2980
     15 C11         2.3370    0.1423    0.0579 C.2       1 <0>         0.2270
     16 N2          2.2407    1.4509   -0.0986 N.pl3     1 <0>        -0.2138
     17 N3          1.1146    2.0651   -0.0260 N.2       1 <0>        -0.0198
     18 N4          3.5637   -0.4638   -0.0187 N.pl3     1 <0>        -0.2697
     19 C12         4.7167    0.3094   -0.1312 C.ar      1 <0>         0.1009
     20 C13         4.7759    1.5639    0.4606 C.ar      1 <0>        -0.2210
     21 C14         5.9214    2.3266    0.3520 C.ar      1 <0>        -0.0638
     22 C15         7.0149    1.8531   -0.3550 C.ar      1 <0>        -0.1530
     23 C16         6.9727    0.6124   -0.9535 C.ar      1 <0>        -0.0503
     24 C17         5.8224   -0.1733   -0.8479 C.ar      1 <0>        -0.0443
     25 C18         5.7717   -1.4632   -1.4677 C.1       1 <0>        -0.1043
     26 N5          5.7314   -2.4865   -1.9594 N.1       1 <0>        -0.0096
     27 H2         -0.9700    8.3895    1.3339 H         1 <0>         0.0689
     28 H3          0.7717    8.0696    1.1535 H         1 <0>         0.0657
     29 H4          0.0406    9.4872    0.3633 H         1 <0>         0.1073
     30 H5         -0.9001    5.9291   -2.4040 H         1 <0>         0.1429
     31 H6         -1.3040    3.5259   -2.0576 H         1 <0>         0.1352
     32 H7         -0.7852    4.0367    2.1449 H         1 <0>         0.1305
     33 H8         -0.3692    6.4390    1.8060 H         1 <0>         0.1334
     34 H9         -1.9852    1.7947   -0.5006 H         1 <0>         0.1206
     35 H10        -1.7643    2.0071    1.2528 H         1 <0>         0.1191
     36 H11         3.6289   -1.4314    0.0054 H         1 <0>         0.2823
     37 H12         3.9262    1.9420    1.0095 H         1 <0>         0.1585
     38 H13         5.9641    3.3002    0.8175 H         1 <0>         0.1464
     39 H14         7.9047    2.4596   -0.4378 H         1 <0>         0.1476
     40 H15         7.8277    0.2481   -1.5037 H         1 <0>         0.1530
@<TRIPOS>BOND
     1    1    2 1
     2    1   27 1
     3    1   28 1
     4    1   29 1
     5    2    3 1
     6    3    8 ar
     7    3    4 ar
     8    4    5 ar
     9    4   30 1
    10    5    6 ar
    11    5   31 1
    12    6    7 ar
    13    6    9 1
    14    7    8 ar
    15    7   32 1
    16    8   33 1
    17    9   10 1
    18    9   34 1
    19    9   35 1
    20   10   11 1
    21   10   17 2
    22   11   13 1
    23   11   12 2
    24   13   15 2
    25   14   16 1
    26   15   18 1
    27   15   16 1
    28   16   17 1
    29   18   19 1
    30   18   36 1
    31   19   24 ar
    32   19   20 ar
    33   20   21 ar
    34   20   37 1
    35   21   22 ar
    36   21   38 1
    37   22   23 ar
    38   22   39 1
    39   23   24 ar
    40   23   40 1
    41   24   25 1
    42   25   26 3
@<TRIPOS>MOLECULE
ZINC04225010
   40    42     0     0     0
SMALL
USER_CHARGES

@<TRIPOS>ATOM
      1 C1         -0.1198    8.4489    0.6564 C.3       1 <0>        -0.0628
      2 O1         -0.3848    7.6638   -0.5077 O.3       1 <0>        -0.2115
      3 C2         -0.6088    6.3367   -0.3190 C.ar      1 <0>         0.1010
      4 C3         -0.8724    5.5151   -1.4054 C.ar      1 <0>        -0.1535
      5 C4         -1.0994    4.1664   -1.2110 C.ar      1 <0>        -0.0737
      6 C5         -1.0641    3.6351    0.0651 C.ar      1 <0>        -0.1009
      7 C6         -0.8072    4.4529    1.1501 C.ar      1 <0>        -0.0723
      8 C7         -0.5739    5.8012    0.9603 C.ar      1 <0>        -0.2175
      9 C8         -1.3121    2.1635    0.2743 C.3       1 <0>        -0.0606
     10 C9         -0.0045    1.4181    0.1995 C.ar      1 <0>        -0.3042
     11 C10         0.0264    0.0153    0.3598 C.ar      1 <0>         0.2186
     12 O2         -0.9968   -0.6143    0.5698 O.3       1 <0>        -0.1661
     13 N1          1.2240   -0.6095    0.2839 N.ar      1 <0>        -0.2851
     14 H1         -1.7754    0.0128    0.5916 H         1 <0>         0.2771
     15 C11         2.3371    0.1423    0.0581 C.ar      1 <0>         0.1840
     16 N2          2.2420    1.4522   -0.0878 N.ar      1 <0>        -0.2038
     17 N3          1.1153    2.0658   -0.0202 N.ar      1 <0>         0.0733
     18 N4          3.5638   -0.4638   -0.0181 N.pl3     1 <0>        -0.2472
     19 C12         4.7172    0.3096   -0.1247 C.ar      1 <0>         0.1119
     20 C13         4.7753    1.5617    0.4723 C.ar      1 <0>        -0.1304
     21 C14         5.9212    2.3245    0.3695 C.ar      1 <0>        -0.0856
     22 C15         7.0163    1.8537   -0.3368 C.ar      1 <0>        -0.1526
     23 C16         6.9752    0.6155   -0.9405 C.ar      1 <0>        -0.0712
     24 C17         5.8244   -0.1704   -0.8408 C.ar      1 <0>        -0.0560
     25 C18         5.7749   -1.4578   -1.4660 C.1       1 <0>        -0.0911
     26 N5          5.7356   -2.4790   -1.9620 N.1       1 <0>        -0.0398
     27 H2         -0.9698    8.3892    1.3361 H         1 <0>         0.0666
     28 H3          0.7719    8.0694    1.1554 H         1 <0>         0.0695
     29 H4          0.0408    9.4872    0.3656 H         1 <0>         0.1079
     30 H5         -0.9004    5.9297   -2.4023 H         1 <0>         0.1447
     31 H6         -1.3042    3.5264   -2.0564 H         1 <0>         0.1330
     32 H7         -0.7849    4.0363    2.1462 H         1 <0>         0.1277
     33 H8         -0.3689    6.4387    1.8077 H         1 <0>         0.1349
     34 H9         -1.9853    1.7949   -0.4997 H         1 <0>         0.0909
     35 H10        -1.7641    2.0069    1.2538 H         1 <0>         0.0892
     36 H11         3.6287   -1.4314    0.0022 H         1 <0>         0.2646
     37 H12         3.9244    1.9377    1.0208 H         1 <0>         0.1709
     38 H13         5.9630    3.2962    0.8391 H         1 <0>         0.1393
     39 H14         7.9064    2.4603   -0.4150 H         1 <0>         0.1375
     40 H15         7.8313    0.2532   -1.4901 H         1 <0>         0.1432
@<TRIPOS>BOND
     1    1    2 1
     2    1   27 1
     3    1   28 1
     4    1   29 1
     5    2    3 1
     6    3    8 ar
     7    3    4 ar
     8    4    5 ar
     9    4   30 1
    10    5    6 ar
    11    5   31 1
    12    6    7 ar
    13    6    9 1
    14    7    8 ar
    15    7   32 1
    16    8   33 1
    17    9   10 1
    18    9   34 1
    19    9   35 1
    20   10   11 ar
    21   10   17 ar
    22   11   13 ar
    23   11   12 1
    24   12   14 1
    25   13   15 ar
    26   15   18 1
    27   15   16 ar
    28   16   17 ar
    29   18   19 1
    30   18   36 1
    31   19   24 ar
    32   19   20 ar
    33   20   21 ar
    34   20   37 1
    35   21   22 ar
    36   21   38 1
    37   22   23 ar
    38   22   39 1
    39   23   24 ar
    40   23   40 1
    41   24   25 1
    42   25   26 3
@<TRIPOS>MOLECULE
ZINC04225027
   40    42     0     0     0
SMALL
USER_CHARGES

@<TRIPOS>ATOM
      1 C1         -1.2409    7.7069   -7.7853 C.3       1 <0>        -0.1755
      2 C2         -0.5565    6.3939   -7.5051 C.ar      1 <0>        -0.1202
      3 C3         -0.4436    5.4461   -8.5035 C.ar      1 <0>        -0.0514
      4 C4          0.1800    4.2392   -8.2458 C.ar      1 <0>        -0.1259
      5 C5          0.6965    3.9786   -6.9895 C.ar      1 <0>        -0.0525
      6 C6          0.5908    4.9235   -5.9882 C.ar      1 <0>        -0.1331
      7 C7         -0.0347    6.1373   -6.2439 C.ar      1 <0>         0.1084
      8 N1         -0.1439    7.0962   -5.2320 N.pl3     1 <0>        -0.2737
      9 C8         -0.1248    6.7104   -3.9179 C.2       1 <0>         0.2063
     10 N2         -0.1075    7.6541   -2.9359 N.am      1 <0>        -0.3072
     11 H1         -0.1082    8.6279   -3.1631 H         1 <0>         0.2512
     12 C9         -0.0894    7.2452   -1.6464 C.2       1 <0>         0.3109
     13 O1         -0.0731    8.0529   -0.7329 O.2       1 <0>        -0.3323
     14 C10        -0.0894    5.8569   -1.3879 C.2       1 <0>        -0.1857
     15 N3         -0.1013    5.0145   -2.3938 N.2       1 <0>         0.0407
     16 N4         -0.1238    5.4248   -3.6112 N.2       1 <0>        -0.2012
     17 C11        -0.0696    5.3475    0.0303 C.3       1 <0>        -0.0456
     18 C12        -0.0739    3.8405    0.0229 C.ar      1 <0>        -0.0705
     19 C13         1.1211    3.1460    0.0016 C.ar      1 <0>        -0.1128
     20 C14         1.1172    1.7637   -0.0052 C.ar      1 <0>        -0.1260
     21 C15        -0.0818    1.0759    0.0093 C.ar      1 <0>        -0.1248
     22 C16        -1.2769    1.7704    0.0252 C.ar      1 <0>        -0.1251
     23 C17        -1.2729    3.1527    0.0378 C.ar      1 <0>        -0.1115
     24 N5          0.2947    3.2238   -9.3167 N.pl3     1 <0>         0.5507
     25 O2          0.8434    2.1601   -9.0910 O.2       1 <0>        -0.3532
     26 O3         -0.1597    3.4519  -10.4235 O.3       1 <0>        -0.3599
     27 H2         -0.5075    8.4301   -8.1419 H         1 <0>         0.0898
     28 H3         -2.0077    7.5618   -8.5463 H         1 <0>         0.1013
     29 H4         -1.7026    8.0785   -6.8705 H         1 <0>         0.0771
     30 H5         -0.8465    5.6462   -9.4853 H         1 <0>         0.1687
     31 H6          1.1827    3.0348   -6.7914 H         1 <0>         0.1727
     32 H7          0.9937    4.7191   -5.0073 H         1 <0>         0.1957
     33 H8         -0.2331    8.0346   -5.4607 H         1 <0>         0.2504
     34 H9         -0.9508    5.7107    0.5591 H         1 <0>         0.1126
     35 H10         0.8289    5.7058    0.5326 H         1 <0>         0.1119
     36 H11         2.0578    3.6834   -0.0100 H         1 <0>         0.1270
     37 H12         2.0508    1.2211   -0.0221 H         1 <0>         0.1283
     38 H13        -0.0849   -0.0041    0.0036 H         1 <0>         0.1281
     39 H14        -2.2137    1.2330    0.0320 H         1 <0>         0.1287
     40 H15        -2.2066    3.6952    0.0547 H         1 <0>         0.1278
@<TRIPOS>BOND
     1    1    2 1
     2    1   27 1
     3    1   28 1
     4    1   29 1
     5    2    7 ar
     6    2    3 ar
     7    3    4 ar
     8    3   30 1
     9    4    5 ar
    10    4   24 1
    11    5    6 ar
    12    5   31 1
    13    6    7 ar
    14    6   32 1
    15    7    8 1
    16    8    9 1
    17    8   33 1
    18    9   16 2
    19    9   10 1
    20   10   11 1
    21   10   12 am
    22   12   13 2
    23   12   14 1
    24   14   15 2
    25   14   17 1
    26   15   16 1
    27   17   18 1
    28   17   34 1
    29   17   35 1
    30   18   23 ar
    31   18   19 ar
    32   19   20 ar
    33   19   36 1
    34   20   21 ar
    35   20   37 1
    36   21   22 ar
    37   21   38 1
    38   22   23 ar
    39   22   39 1
    40   23   40 1
    41   24   25 2
    42   24   26 1
@<TRIPOS>MOLECULE
ZINC04225027
   40    42     0     0     0
SMALL
USER_CHARGES

@<TRIPOS>ATOM
      1 C1         -1.2675    7.7029   -7.7816 C.3       1 <0>        -0.1789
      2 C2         -0.5774    6.3924   -7.5036 C.ar      1 <0>        -0.1170
      3 C3         -0.4640    5.4451   -8.5024 C.ar      1 <0>        -0.0285
      4 C4          0.1648    4.2405   -8.2467 C.ar      1 <0>        -0.1359
      5 C5          0.6861    3.9817   -6.9920 C.ar      1 <0>        -0.0273
      6 C6          0.5800    4.9262   -5.9903 C.ar      1 <0>        -0.2382
      7 C7         -0.0507    6.1377   -6.2440 C.ar      1 <0>         0.1115
      8 N1         -0.1603    7.0961   -5.2318 N.pl3     1 <0>        -0.2666
      9 C8         -0.1358    6.7104   -3.9177 C.2       1 <0>         0.2219
     10 N2         -0.1189    7.6541   -2.9357 N.2       1 <0>        -0.3263
     11 H1         -0.1372    4.7505   -4.3495 H         1 <0>         0.3069
     12 C9         -0.0953    7.2452   -1.6463 C.2       1 <0>         0.2809
     13 O1         -0.0792    8.0529   -0.7328 O.2       1 <0>        -0.3069
     14 C10        -0.0993    5.8569   -1.3877 C.2       1 <0>        -0.1505
     15 N3         -0.1108    5.0145   -2.3936 N.2       1 <0>        -0.0195
     16 N4         -0.1285    5.4248   -3.6111 N.pl3     1 <0>        -0.2227
     17 C11        -0.0851    5.3475    0.0305 C.3       1 <0>        -0.0516
     18 C12        -0.0939    3.8405    0.0232 C.ar      1 <0>        -0.0760
     19 C13         1.0991    3.1425    0.0054 C.ar      1 <0>        -0.1166
     20 C14         1.0910    1.7602   -0.0014 C.ar      1 <0>        -0.1275
     21 C15        -0.1101    1.0760    0.0097 C.ar      1 <0>        -0.1273
     22 C16        -1.3031    1.7741    0.0221 C.ar      1 <0>        -0.1270
     23 C17        -1.2950    3.1564    0.0347 C.ar      1 <0>        -0.1158
     24 N5          0.2799    3.2255   -9.3180 N.pl3     1 <0>         0.5510
     25 O2          0.8332    2.1639   -9.0940 O.2       1 <0>        -0.3495
     26 O3         -0.1787    3.4520  -10.4234 O.3       1 <0>        -0.3497
     27 H2         -0.5378    8.4288   -8.1404 H         1 <0>         0.0991
     28 H3         -2.0361    7.5550   -8.5403 H         1 <0>         0.1018
     29 H4         -1.7277    8.0727   -6.8654 H         1 <0>         0.0909
     30 H5         -0.8707    5.6437   -9.4829 H         1 <0>         0.1756
     31 H6          1.1764    3.0397   -6.7954 H         1 <0>         0.1752
     32 H7          0.9867    4.7232   -5.0107 H         1 <0>         0.1734
     33 H8         -0.2537    8.0342   -5.4601 H         1 <0>         0.2812
     34 H9         -0.9667    5.7134    0.5568 H         1 <0>         0.1221
     35 H10         0.8130    5.7032    0.5354 H         1 <0>         0.1215
     36 H11         2.0374    3.6770   -0.0035 H         1 <0>         0.1294
     37 H12         2.0230    1.2148   -0.0155 H         1 <0>         0.1291
     38 H13        -0.1164   -0.0040    0.0040 H         1 <0>         0.1288
     39 H14        -2.2416    1.2395    0.0262 H         1 <0>         0.1293
     40 H15        -2.2271    3.7017    0.0488 H         1 <0>         0.1298
@<TRIPOS>BOND
     1    1    2 1
     2    1   27 1
     3    1   28 1
     4    1   29 1
     5    2    7 ar
     6    2    3 ar
     7    3    4 ar
     8    3   30 1
     9    4    5 ar
    10    4   24 1
    11    5    6 ar
    12    5   31 1
    13    6    7 ar
    14    6   32 1
    15    7    8 1
    16    8    9 1
    17    8   33 1
    18    9   16 1
    19    9   10 2
    20   10   12 1
    21   11   16 1
    22   12   13 2
    23   12   14 1
    24   14   17 1
    25   14   15 2
    26   15   16 1
    27   17   18 1
    28   17   34 1
    29   17   35 1
    30   18   23 ar
    31   18   19 ar
    32   19   20 ar
    33   19   36 1
    34   20   21 ar
    35   20   37 1
    36   21   22 ar
    37   21   38 1
    38   22   23 ar
    39   22   39 1
    40   23   40 1
    41   24   25 2
    42   24   26 1
@<TRIPOS>MOLECULE
ZINC04225027
   40    42     0     0     0
SMALL
USER_CHARGES

@<TRIPOS>ATOM
      1 C1         -1.2695    7.7079   -7.7798 C.3       1 <0>        -0.1756
      2 C2         -0.5849    6.3943   -7.5028 C.ar      1 <0>        -0.1235
      3 C3         -0.4776    5.4464   -8.5017 C.ar      1 <0>        -0.0505
      4 C4          0.1462    4.2390   -8.2470 C.ar      1 <0>        -0.1329
      5 C5          0.6684    3.9779   -6.9931 C.ar      1 <0>        -0.0532
      6 C6          0.5682    4.9229   -5.9914 C.ar      1 <0>        -0.1413
      7 C7         -0.0574    6.1373   -6.2441 C.ar      1 <0>         0.1148
      8 N1         -0.1610    7.0963   -5.2317 N.pl3     1 <0>        -0.2453
      9 C8         -0.1360    6.7104   -3.9177 C.ar      1 <0>         0.1806
     10 N2         -0.1075    7.6541   -2.9359 N.ar      1 <0>        -0.2867
     11 H1         -0.0618    7.5673    0.1412 H         1 <0>         0.2793
     12 C9         -0.0894    7.2452   -1.6464 C.ar      1 <0>         0.2207
     13 O1         -0.0735    8.0529   -0.7329 O.3       1 <0>        -0.1651
     14 C10        -0.0999    5.8570   -1.3877 C.ar      1 <0>        -0.2975
     15 N3         -0.1169    5.0146   -2.3935 N.ar      1 <0>         0.0745
     16 N4         -0.1397    5.4249   -3.6109 N.ar      1 <0>        -0.2041
     17 C11        -0.0861    5.3477    0.0306 C.3       1 <0>        -0.0667
     18 C12        -0.0952    3.8407    0.0233 C.ar      1 <0>        -0.0637
     19 C13         1.0977    3.1424    0.0058 C.ar      1 <0>        -0.1112
     20 C14         1.0894    1.7601   -0.0009 C.ar      1 <0>        -0.1232
     21 C15        -0.1118    1.0761    0.0099 C.ar      1 <0>        -0.1209
     22 C16        -1.3048    1.7745    0.0221 C.ar      1 <0>        -0.1224
     23 C17        -1.2964    3.1567    0.0346 C.ar      1 <0>        -0.1097
     24 N5          0.2549    3.2235   -9.3184 N.pl3     1 <0>         0.5520
     25 O2          0.8037    2.1593   -9.0953 O.2       1 <0>        -0.3584
     26 O3         -0.2045    3.4520  -10.4231 O.3       1 <0>        -0.3633
     27 H2         -0.5372    8.4305   -8.1399 H         1 <0>         0.0900
     28 H3         -2.0400    7.5635   -8.5372 H         1 <0>         0.0968
     29 H4         -1.7265    8.0799   -6.8628 H         1 <0>         0.0836
     30 H5         -0.8850    5.6469   -9.4816 H         1 <0>         0.1666
     31 H6          1.1547    3.0337   -6.7973 H         1 <0>         0.1690
     32 H7          0.9756    4.7182   -5.0124 H         1 <0>         0.1912
     33 H8         -0.2504    8.0347   -5.4600 H         1 <0>         0.2636
     34 H9         -0.9677    5.7137    0.5567 H         1 <0>         0.0931
     35 H10         0.8120    5.7032    0.5356 H         1 <0>         0.0920
     36 H11         2.0361    3.6768   -0.0030 H         1 <0>         0.1268
     37 H12         2.0213    1.2145   -0.0149 H         1 <0>         0.1310
     38 H13        -0.1184   -0.0038    0.0043 H         1 <0>         0.1308
     39 H14        -2.2433    1.2400    0.0261 H         1 <0>         0.1314
     40 H15        -2.2284    3.7022    0.0486 H         1 <0>         0.1276
@<TRIPOS>BOND
     1    1    2 1
     2    1   27 1
     3    1   28 1
     4    1   29 1
     5    2    7 ar
     6    2    3 ar
     7    3    4 ar
     8    3   30 1
     9    4    5 ar
    10    4   24 1
    11    5    6 ar
    12    5   31 1
    13    6    7 ar
    14    6   32 1
    15    7    8 1
    16    8    9 1
    17    8   33 1
    18    9   16 ar
    19    9   10 ar
    20   10   12 ar
    21   11   13 1
    22   12   13 1
    23   12   14 ar
    24   14   17 1
    25   14   15 ar
    26   15   16 ar
    27   17   18 1
    28   17   34 1
    29   17   35 1
    30   18   23 ar
    31   18   19 ar
    32   19   20 ar
    33   19   36 1
    34   20   21 ar
    35   20   37 1
    36   21   22 ar
    37   21   38 1
    38   22   23 ar
    39   22   39 1
    40   23   40 1
    41   24   25 2
    42   24   26 1
@<TRIPOS>MOLECULE
ZINC04225028
   40    42     0     0     0
SMALL
USER_CHARGES

@<TRIPOS>ATOM
      1 C1          0.8707    1.8816   -8.9925 C.3       1 <0>        -0.2535
      2 C2          0.2942    3.2395   -9.3005 C.2       1 <0>         0.2676
      3 O1         -0.0748    3.5006  -10.4262 O.2       1 <0>        -0.2938
      4 C3          0.1793    4.2464   -8.2382 C.ar      1 <0>        -0.1726
      5 C4         -0.4602    5.4664   -8.4930 C.ar      1 <0>        -0.0489
      6 C5         -0.5652    6.4001   -7.5016 C.ar      1 <0>        -0.1745
      7 C6         -0.0382    6.1405   -6.2391 C.ar      1 <0>         0.0912
      8 C7          0.6034    4.9313   -5.9830 C.ar      1 <0>        -0.1312
      9 C8          0.7084    3.9898   -6.9669 C.ar      1 <0>        -0.0706
     10 N1         -0.1479    7.0946   -5.2318 N.pl3     1 <0>        -0.2760
     11 C9         -0.2876    6.7003   -3.9265 C.2       1 <0>         0.2093
     12 N2         -0.2858    7.6331   -2.9343 N.am      1 <0>        -0.3086
     13 H1         -0.1835    8.6049   -3.1468 H         1 <0>         0.2500
     14 C10        -0.4254    7.2163   -1.6548 C.2       1 <0>         0.3121
     15 O2         -0.4302    8.0142   -0.7326 O.2       1 <0>        -0.3386
     16 C11        -0.5657    5.8311   -1.4170 C.2       1 <0>        -0.1965
     17 N3         -0.5513    4.9991   -2.4315 N.2       1 <0>         0.0426
     18 N4         -0.4225    5.4176   -3.6394 N.2       1 <0>        -0.1993
     19 C12        -0.7244    5.3130   -0.0108 C.3       1 <0>        -0.0443
     20 C13        -0.8534    3.8118   -0.0401 C.ar      1 <0>        -0.0672
     21 C14         0.2762    3.0193    0.0423 C.ar      1 <0>        -0.1128
     22 C15         0.1578    1.6423    0.0154 C.ar      1 <0>        -0.1271
     23 C16        -1.0901    1.0578   -0.0938 C.ar      1 <0>        -0.1269
     24 C17        -2.2193    1.8504   -0.1814 C.ar      1 <0>        -0.1256
     25 C18        -2.1014    3.2274   -0.1488 C.ar      1 <0>        -0.1112
     26 H2          1.1968    1.8645   -8.0473 H         1 <0>         0.0821
     27 H3          0.1008    1.1215   -9.1251 H         1 <0>         0.1101
     28 H4          1.7021    1.6782   -9.6673 H         1 <0>         0.1072
     29 H5         -0.8698    5.6683   -9.4717 H         1 <0>         0.1571
     30 H6         -1.0581    7.3409   -7.6971 H         1 <0>         0.1344
     31 H7          1.0149    4.7361   -5.0037 H         1 <0>         0.1687
     32 H8          1.2022    3.0505   -6.7662 H         1 <0>         0.1439
     33 H9         -0.1256    8.0387   -5.4535 H         1 <0>         0.2457
     34 H10        -1.6188    5.7459    0.4371 H         1 <0>         0.1110
     35 H11         0.1487    5.5912    0.5795 H         1 <0>         0.1100
     36 H12         1.2512    3.4759    0.1272 H         1 <0>         0.1270
     37 H13         1.0404    1.0231    0.0794 H         1 <0>         0.1267
     38 H14        -1.1825   -0.0180   -0.1151 H         1 <0>         0.1264
     39 H15        -3.1939    1.3938   -0.2712 H         1 <0>         0.1277
     40 H16        -2.9839    3.8466   -0.2128 H         1 <0>         0.1282
@<TRIPOS>BOND
     1    1    2 1
     2    1   26 1
     3    1   27 1
     4    1   28 1
     5    2    3 2
     6    2    4 1
     7    4    9 ar
     8    4    5 ar
     9    5    6 ar
    10    5   29 1
    11    6    7 ar
    12    6   30 1
    13    7    8 ar
    14    7   10 1
    15    8    9 ar
    16    8   31 1
    17    9   32 1
    18   10   11 1
    19   10   33 1
    20   11   18 2
    21   11   12 1
    22   12   13 1
    23   12   14 am
    24   14   15 2
    25   14   16 1
    26   16   17 2
    27   16   19 1
    28   17   18 1
    29   19   20 1
    30   19   34 1
    31   19   35 1
    32   20   25 ar
    33   20   21 ar
    34   21   22 ar
    35   21   36 1
    36   22   23 ar
    37   22   37 1
    38   23   24 ar
    39   23   38 1
    40   24   25 ar
    41   24   39 1
    42   25   40 1
@<TRIPOS>MOLECULE
ZINC04225028
   40    42     0     0     0
SMALL
USER_CHARGES

@<TRIPOS>ATOM
      1 C1          0.8626    1.8864   -8.9965 C.3       1 <0>        -0.2533
      2 C2          0.2803    3.2422   -9.3029 C.2       1 <0>         0.2657
      3 O1         -0.0929    3.5019  -10.4275 O.2       1 <0>        -0.2842
      4 C3          0.1649    4.2487   -8.2403 C.ar      1 <0>        -0.1786
      5 C4         -0.4797    5.4664   -8.4933 C.ar      1 <0>        -0.0292
      6 C5         -0.5851    6.3998   -7.5016 C.ar      1 <0>        -0.1719
      7 C6         -0.0535    6.1421   -6.2406 C.ar      1 <0>         0.0882
      8 C7          0.5932    4.9352   -5.9864 C.ar      1 <0>        -0.2285
      9 C8          0.6987    3.9941   -6.9705 C.ar      1 <0>        -0.0508
     10 N1         -0.1637    7.0959   -5.2331 N.pl3     1 <0>        -0.2718
     11 C9         -0.2981    6.7012   -3.9273 C.2       1 <0>         0.2273
     12 N2         -0.2967    7.6340   -2.9352 N.2       1 <0>        -0.3312
     13 H1         -0.4217    4.7515   -4.3853 H         1 <0>         0.2993
     14 C10        -0.4311    7.2168   -1.6553 C.2       1 <0>         0.2816
     15 O2         -0.4360    8.0147   -0.7331 O.2       1 <0>        -0.3133
     16 C11        -0.5775    5.8321   -1.4179 C.2       1 <0>        -0.1557
     17 N3         -0.5626    5.0001   -2.4324 N.2       1 <0>        -0.0193
     18 N4         -0.4282    5.4181   -3.6398 N.pl3     1 <0>        -0.2125
     19 C12        -0.7429    5.3146   -0.0123 C.3       1 <0>        -0.0510
     20 C13        -0.8772    3.8139   -0.0420 C.ar      1 <0>        -0.0734
     21 C14         0.2492    3.0173    0.0442 C.ar      1 <0>        -0.1165
     22 C15         0.1259    1.6407    0.0169 C.ar      1 <0>        -0.1285
     23 C16        -1.1238    1.0608   -0.0965 C.ar      1 <0>        -0.1292
     24 C17        -2.2498    1.8575   -0.1880 C.ar      1 <0>        -0.1275
     25 C18        -2.1270    3.2340   -0.1550 C.ar      1 <0>        -0.1154
     26 H2          1.1915    1.8705   -8.0523 H         1 <0>         0.0790
     27 H3          0.0950    1.1235   -9.1268 H         1 <0>         0.1121
     28 H4          1.6927    1.6859   -9.6737 H         1 <0>         0.1123
     29 H5         -0.8929    5.6668   -9.4708 H         1 <0>         0.1642
     30 H6         -1.0820    7.3388   -7.6957 H         1 <0>         0.1490
     31 H7          1.0083    4.7416   -5.0083 H         1 <0>         0.1535
     32 H8          1.1964    3.0566   -6.7713 H         1 <0>         0.1473
     33 H9         -0.1454    8.0400   -5.4549 H         1 <0>         0.2776
     34 H10        -1.6372    5.7508    0.4325 H         1 <0>         0.1212
     35 H11         0.1292    5.5896    0.5810 H         1 <0>         0.1204
     36 H12         1.2255    3.4703    0.1325 H         1 <0>         0.1294
     37 H13         1.0060    1.0183    0.0840 H         1 <0>         0.1277
     38 H14        -1.2200   -0.0147   -0.1182 H         1 <0>         0.1272
     39 H15        -3.2257    1.4044   -0.2811 H         1 <0>         0.1285
     40 H16        -3.0070    3.8564   -0.2220 H         1 <0>         0.1303
@<TRIPOS>BOND
     1    1    2 1
     2    1   26 1
     3    1   27 1
     4    1   28 1
     5    2    3 2
     6    2    4 1
     7    4    9 ar
     8    4    5 ar
     9    5    6 ar
    10    5   29 1
    11    6    7 ar
    12    6   30 1
    13    7    8 ar
    14    7   10 1
    15    8    9 ar
    16    8   31 1
    17    9   32 1
    18   10   11 1
    19   10   33 1
    20   11   18 1
    21   11   12 2
    22   12   14 1
    23   13   18 1
    24   14   15 2
    25   14   16 1
    26   16   19 1
    27   16   17 2
    28   17   18 1
    29   19   20 1
    30   19   34 1
    31   19   35 1
    32   20   25 ar
    33   20   21 ar
    34   21   22 ar
    35   21   36 1
    36   22   23 ar
    37   22   37 1
    38   23   24 ar
    39   23   38 1
    40   24   25 ar
    41   24   39 1
    42   25   40 1
@<TRIPOS>MOLECULE
ZINC04225028
   40    42     0     0     0
SMALL
USER_CHARGES

@<TRIPOS>ATOM
      1 C1          0.8331    1.8840   -9.0008 C.3       1 <0>        -0.2540
      2 C2          0.2563    3.2425   -9.3055 C.2       1 <0>         0.2690
      3 O1         -0.1176    3.5044  -10.4294 O.2       1 <0>        -0.2977
      4 C3          0.1470    4.2490   -8.2422 C.ar      1 <0>        -0.1807
      5 C4         -0.4927    5.4696   -8.4936 C.ar      1 <0>        -0.0475
      6 C5         -0.5924    6.4029   -7.5013 C.ar      1 <0>        -0.1786
      7 C6         -0.0599    6.1423   -6.2413 C.ar      1 <0>         0.0990
      8 C7          0.5819    4.9325   -5.9887 C.ar      1 <0>        -0.1395
      9 C8          0.6817    3.9914   -6.9735 C.ar      1 <0>        -0.0706
     10 N1         -0.1643    7.0960   -5.2331 N.pl3     1 <0>        -0.2487
     11 C9         -0.2983    6.7012   -3.9273 C.ar      1 <0>         0.1835
     12 N2         -0.2858    7.6331   -2.9343 N.ar      1 <0>        -0.2897
     13 H1         -0.5425    7.5240    0.1317 H         1 <0>         0.2770
     14 C10        -0.4254    7.2163   -1.6548 C.ar      1 <0>         0.2186
     15 O2         -0.4300    8.0142   -0.7326 O.3       1 <0>        -0.1672
     16 C11        -0.5780    5.8323   -1.4179 C.ar      1 <0>        -0.3058
     17 N3         -0.5685    5.0006   -2.4328 N.ar      1 <0>         0.0734
     18 N4         -0.4389    5.4191   -3.6406 N.ar      1 <0>        -0.2003
     19 C12        -0.7438    5.3149   -0.0123 C.3       1 <0>        -0.0655
     20 C13        -0.8784    3.8142   -0.0420 C.ar      1 <0>        -0.0603
     21 C14         0.2478    3.0173    0.0445 C.ar      1 <0>        -0.1111
     22 C15         0.1243    1.6408    0.0172 C.ar      1 <0>        -0.1243
     23 C16        -1.1255    1.0611   -0.0964 C.ar      1 <0>        -0.1230
     24 C17        -2.2513    1.8580   -0.1881 C.ar      1 <0>        -0.1229
     25 C18        -2.1282    3.2345   -0.1552 C.ar      1 <0>        -0.1094
     26 H2          1.1635    1.8662   -8.0571 H         1 <0>         0.0818
     27 H3          0.0620    1.1245   -9.1302 H         1 <0>         0.1081
     28 H4          1.6613    1.6802   -9.6794 H         1 <0>         0.1057
     29 H5         -0.9066    5.6723   -9.4703 H         1 <0>         0.1548
     30 H6         -1.0855    7.3442   -7.6941 H         1 <0>         0.1363
     31 H7          0.9977    4.7365   -5.0114 H         1 <0>         0.1647
     32 H8          1.1757    3.0516   -6.7755 H         1 <0>         0.1400
     33 H9         -0.1422    8.0402   -5.4544 H         1 <0>         0.2593
     34 H10        -1.6381    5.7512    0.4324 H         1 <0>         0.0917
     35 H11         0.1283    5.5897    0.5811 H         1 <0>         0.0903
     36 H12         1.2243    3.4702    0.1329 H         1 <0>         0.1268
     37 H13         1.0042    1.0182    0.0844 H         1 <0>         0.1295
     38 H14        -1.2219   -0.0144   -0.1180 H         1 <0>         0.1291
     39 H15        -3.2273    1.4051   -0.2814 H         1 <0>         0.1304
     40 H16        -3.0081    3.8571   -0.2224 H         1 <0>         0.1280
@<TRIPOS>BOND
     1    1    2 1
     2    1   26 1
     3    1   27 1
     4    1   28 1
     5    2    3 2
     6    2    4 1
     7    4    9 ar
     8    4    5 ar
     9    5    6 ar
    10    5   29 1
    11    6    7 ar
    12    6   30 1
    13    7    8 ar
    14    7   10 1
    15    8    9 ar
    16    8   31 1
    17    9   32 1
    18   10   11 1
    19   10   33 1
    20   11   18 ar
    21   11   12 ar
    22   12   14 ar
    23   13   15 1
    24   14   15 1
    25   14   16 ar
    26   16   19 1
    27   16   17 ar
    28   17   18 ar
    29   19   20 1
    30   19   34 1
    31   19   35 1
    32   20   25 ar
    33   20   21 ar
    34   21   22 ar
    35   21   36 1
    36   22   23 ar
    37   22   37 1
    38   23   24 ar
    39   23   38 1
    40   24   25 ar
    41   24   39 1
    42   25   40 1
@<TRIPOS>MOLECULE
ZINC04225062
   38    40     0     0     0
SMALL
USER_CHARGES

@<TRIPOS>ATOM
      1 C1          1.4221   -0.5777   -0.5889 C.3       1 <0>        -0.0507
      2 O1          0.1309    0.0836   -0.6504 O.3       1 <0>        -0.2698
      3 C2         -0.0180    1.2044    0.0826 C.2       1 <0>         0.3496
      4 O2          0.9059    1.6179    0.7548 O.2       1 <0>        -0.3582
      5 C3         -1.3038    1.9257    0.0738 C.ar      1 <0>        -0.1263
      6 C4         -2.3662    1.4546   -0.7037 C.ar      1 <0>        -0.0599
      7 C5         -3.5667    2.1276   -0.7058 C.ar      1 <0>        -0.1769
      8 C6         -3.7205    3.2820    0.0564 C.ar      1 <0>         0.0925
      9 C7         -2.6634    3.7568    0.8273 C.ar      1 <0>        -0.1321
     10 C8         -1.4619    3.0858    0.8383 C.ar      1 <0>        -0.0441
     11 N1         -4.9352    3.9635    0.0480 N.pl3     1 <0>        -0.2766
     12 C9         -4.9556    5.3293    0.1594 C.2       1 <0>         0.2112
     13 N2         -6.1461    5.9811    0.2710 N.am      1 <0>        -0.3078
     14 H1         -7.0081    5.4741    0.2723 H         1 <0>         0.2509
     15 C10        -6.1371    7.3297    0.3801 C.2       1 <0>         0.3145
     16 O3         -7.1778    7.9572    0.4819 O.2       1 <0>        -0.3393
     17 C11        -4.8888    7.9903    0.3722 C.2       1 <0>        -0.2040
     18 N3         -3.7880    7.2851    0.2607 N.2       1 <0>         0.0504
     19 N4         -3.8196    6.0044    0.1634 N.2       1 <0>        -0.1965
     20 C12        -4.8218    9.4911    0.4903 C.3       1 <0>         0.0013
     21 C13        -3.3818    9.9340    0.4554 C.2       1 <0>        -0.0469
     22 C14        -2.6819   10.2479   -0.6496 C.2       1 <0>        -0.1994
     23 C15        -1.3831   10.6086   -0.2230 C.2       1 <0>        -0.2177
     24 C16        -1.3646   10.4856    1.1164 C.2       1 <0>        -0.0971
     25 O4         -2.5779   10.0767    1.5218 O.3       1 <0>        -0.0519
     26 H2          1.6316   -0.8706    0.4399 H         1 <0>         0.0830
     27 H3          1.4069   -1.4641   -1.2231 H         1 <0>         0.1027
     28 H4          2.1970    0.1051   -0.9373 H         1 <0>         0.0843
     29 H5         -2.2463    0.5612   -1.2986 H         1 <0>         0.1529
     30 H6         -4.3890    1.7620   -1.3029 H         1 <0>         0.1348
     31 H7         -2.7862    4.6527    1.4179 H         1 <0>         0.1719
     32 H8         -0.6421    3.4545    1.4370 H         1 <0>         0.1644
     33 H9         -5.7668    3.4713   -0.0367 H         1 <0>         0.2459
     34 H10        -5.3619    9.9454   -0.3405 H         1 <0>         0.1241
     35 H11        -5.2749    9.8021    1.4316 H         1 <0>         0.1187
     36 H12        -3.0434   10.2301   -1.6671 H         1 <0>         0.1534
     37 H13        -0.5622   10.9196   -0.8522 H         1 <0>         0.1531
     38 H14        -0.5178   10.6826    1.7571 H         1 <0>         0.1954
@<TRIPOS>BOND
     1    1    2 1
     2    1   26 1
     3    1   27 1
     4    1   28 1
     5    2    3 1
     6    3    4 2
     7    3    5 1
     8    5   10 ar
     9    5    6 ar
    10    6    7 ar
    11    6   29 1
    12    7    8 ar
    13    7   30 1
    14    8    9 ar
    15    8   11 1
    16    9   10 ar
    17    9   31 1
    18   10   32 1
    19   11   12 1
    20   11   33 1
    21   12   19 2
    22   12   13 1
    23   13   14 1
    24   13   15 am
    25   15   16 2
    26   15   17 1
    27   17   18 2
    28   17   20 1
    29   18   19 1
    30   20   21 1
    31   20   34 1
    32   20   35 1
    33   21   25 1
    34   21   22 2
    35   22   23 1
    36   22   36 1
    37   23   24 2
    38   23   37 1
    39   24   25 1
    40   24   38 1
@<TRIPOS>MOLECULE
ZINC04225062
   38    40     0     0     0
SMALL
USER_CHARGES

@<TRIPOS>ATOM
      1 C1          1.4222   -0.5778   -0.5877 C.3       1 <0>        -0.0505
      2 O1          0.1309    0.0835   -0.6491 O.3       1 <0>        -0.2679
      3 C2         -0.0179    1.2045    0.0836 C.2       1 <0>         0.3498
      4 O2          0.9061    1.6182    0.7555 O.2       1 <0>        -0.3552
      5 C3         -1.3037    1.9257    0.0748 C.ar      1 <0>        -0.1331
      6 C4         -2.3662    1.4544   -0.7024 C.ar      1 <0>        -0.0392
      7 C5         -3.5667    2.1273   -0.7044 C.ar      1 <0>        -0.1749
      8 C6         -3.7204    3.2819    0.0575 C.ar      1 <0>         0.0893
      9 C7         -2.6632    3.7570    0.8281 C.ar      1 <0>        -0.2298
     10 C8         -1.4617    3.0860    0.8390 C.ar      1 <0>        -0.0242
     11 N1         -4.9351    3.9634    0.0491 N.pl3     1 <0>        -0.2726
     12 C9         -4.9556    5.3292    0.1601 C.2       1 <0>         0.2283
     13 N2         -6.1461    5.9810    0.2718 N.2       1 <0>        -0.3293
     14 H1         -2.9580    5.5033    0.0827 H         1 <0>         0.3002
     15 C10        -6.1371    7.3297    0.3805 C.2       1 <0>         0.2838
     16 O3         -7.1778    7.9572    0.4823 O.2       1 <0>        -0.3139
     17 C11        -4.8894    7.9912    0.3613 C.2       1 <0>        -0.1625
     18 N3         -3.7885    7.2859    0.2502 N.2       1 <0>        -0.0112
     19 N4         -3.8199    6.0048    0.1582 N.pl3     1 <0>        -0.2098
     20 C12        -4.8227    9.4925    0.4732 C.3       1 <0>        -0.0056
     21 C13        -3.3829    9.9357    0.4333 C.2       1 <0>        -0.0517
     22 C14        -2.6856   10.2454   -0.6745 C.2       1 <0>        -0.2051
     23 C15        -1.3860   10.6083   -0.2523 C.2       1 <0>        -0.2191
     24 C16        -1.3645   10.4908    1.0876 C.2       1 <0>        -0.1003
     25 O4         -2.5767   10.0831    1.4973 O.3       1 <0>        -0.0524
     26 H2          1.6319   -0.8704    0.4412 H         1 <0>         0.0855
     27 H3          1.4069   -1.4644   -1.2216 H         1 <0>         0.1063
     28 H4          2.1970    0.1049   -0.9364 H         1 <0>         0.0851
     29 H5         -2.2464    0.5608   -1.2970 H         1 <0>         0.1601
     30 H6         -4.3891    1.7616   -1.3013 H         1 <0>         0.1493
     31 H7         -2.7859    4.6530    1.4184 H         1 <0>         0.1574
     32 H8         -0.6418    3.4549    1.4375 H         1 <0>         0.1674
     33 H9         -5.7667    3.4712   -0.0353 H         1 <0>         0.2777
     34 H10        -5.3648    9.9432   -0.3583 H         1 <0>         0.1343
     35 H11        -5.2738    9.8071    1.4142 H         1 <0>         0.1292
     36 H12        -3.0493   10.2234   -1.6911 H         1 <0>         0.1550
     37 H13        -0.5666   10.9171   -0.8845 H         1 <0>         0.1537
     38 H14        -0.5163   10.6907    1.7256 H         1 <0>         0.1961
@<TRIPOS>BOND
     1    1    2 1
     2    1   26 1
     3    1   27 1
     4    1   28 1
     5    2    3 1
     6    3    4 2
     7    3    5 1
     8    5   10 ar
     9    5    6 ar
    10    6    7 ar
    11    6   29 1
    12    7    8 ar
    13    7   30 1
    14    8    9 ar
    15    8   11 1
    16    9   10 ar
    17    9   31 1
    18   10   32 1
    19   11   12 1
    20   11   33 1
    21   12   19 1
    22   12   13 2
    23   13   15 1
    24   14   19 1
    25   15   16 2
    26   15   17 1
    27   17   20 1
    28   17   18 2
    29   18   19 1
    30   20   21 1
    31   20   34 1
    32   20   35 1
    33   21   25 1
    34   21   22 2
    35   22   23 1
    36   22   36 1
    37   23   24 2
    38   23   37 1
    39   24   25 1
    40   24   38 1
@<TRIPOS>MOLECULE
ZINC04225062
   38    40     0     0     0
SMALL
USER_CHARGES

@<TRIPOS>ATOM
      1 C1          1.4223   -0.5780   -0.5855 C.3       1 <0>        -0.0506
      2 O1          0.1311    0.0833   -0.6474 O.3       1 <0>        -0.2698
      3 C2         -0.0179    1.2043    0.0853 C.2       1 <0>         0.3510
      4 O2          0.9059    1.6180    0.7575 O.2       1 <0>        -0.3625
      5 C3         -1.3037    1.9256    0.0761 C.ar      1 <0>        -0.1342
      6 C4         -2.3660    1.4543   -0.7014 C.ar      1 <0>        -0.0591
      7 C5         -3.5665    2.1273   -0.7039 C.ar      1 <0>        -0.1806
      8 C6         -3.7204    3.2819    0.0579 C.ar      1 <0>         0.1000
      9 C7         -2.6635    3.7569    0.8289 C.ar      1 <0>        -0.1404
     10 C8         -1.4620    3.0859    0.8402 C.ar      1 <0>        -0.0443
     11 N1         -4.9351    3.9634    0.0492 N.pl3     1 <0>        -0.2492
     12 C9         -4.9556    5.3292    0.1602 C.ar      1 <0>         0.1851
     13 N2         -6.1461    5.9811    0.2710 N.ar      1 <0>        -0.2886
     14 H1         -6.9729    8.9335    0.5516 H         1 <0>         0.2758
     15 C10        -6.1371    7.3297    0.3801 C.ar      1 <0>         0.2209
     16 O3         -7.1778    7.9572    0.4824 O.3       1 <0>        -0.1661
     17 C11        -4.8893    7.9912    0.3613 C.ar      1 <0>        -0.3120
     18 N3         -3.7885    7.2859    0.2506 N.ar      1 <0>         0.0795
     19 N4         -3.8198    6.0048    0.1589 N.ar      1 <0>        -0.1969
     20 C12        -4.8227    9.4924    0.4732 C.3       1 <0>        -0.0194
     21 C13        -3.3829    9.9357    0.4334 C.2       1 <0>        -0.0432
     22 C14        -2.6856   10.2454   -0.6744 C.2       1 <0>        -0.1918
     23 C15        -1.3860   10.6083   -0.2522 C.2       1 <0>        -0.2165
     24 C16        -1.3645   10.4907    1.0877 C.2       1 <0>        -0.0906
     25 O4         -2.5767   10.0830    1.4974 O.3       1 <0>        -0.0506
     26 H2          1.6316   -0.8706    0.4435 H         1 <0>         0.0822
     27 H3          1.4072   -1.4645   -1.2194 H         1 <0>         0.1015
     28 H4          2.1972    0.1047   -0.9339 H         1 <0>         0.0831
     29 H5         -2.2460    0.5607   -1.2961 H         1 <0>         0.1505
     30 H6         -4.3887    1.7615   -1.3010 H         1 <0>         0.1366
     31 H7         -2.7864    4.6530    1.4192 H         1 <0>         0.1680
     32 H8         -0.6423    3.4548    1.4390 H         1 <0>         0.1607
     33 H9         -5.7667    3.4712   -0.0355 H         1 <0>         0.2594
     34 H10        -5.3648    9.9432   -0.3582 H         1 <0>         0.1042
     35 H11        -5.2738    9.8071    1.4143 H         1 <0>         0.0994
     36 H12        -3.0493   10.2234   -1.6911 H         1 <0>         0.1542
     37 H13        -0.5666   10.9171   -0.8844 H         1 <0>         0.1561
     38 H14        -0.5163   10.6906    1.7257 H         1 <0>         0.1985
@<TRIPOS>BOND
     1    1    2 1
     2    1   26 1
     3    1   27 1
     4    1   28 1
     5    2    3 1
     6    3    4 2
     7    3    5 1
     8    5   10 ar
     9    5    6 ar
    10    6    7 ar
    11    6   29 1
    12    7    8 ar
    13    7   30 1
    14    8    9 ar
    15    8   11 1
    16    9   10 ar
    17    9   31 1
    18   10   32 1
    19   11   12 1
    20   11   33 1
    21   12   19 ar
    22   12   13 ar
    23   13   15 ar
    24   14   16 1
    25   15   16 1
    26   15   17 ar
    27   17   20 1
    28   17   18 ar
    29   18   19 ar
    30   20   21 1
    31   20   34 1
    32   20   35 1
    33   21   25 1
    34   21   22 2
    35   22   23 1
    36   22   36 1
    37   23   24 2
    38   23   37 1
    39   24   25 1
    40   24   38 1
@<TRIPOS>MOLECULE
ZINC04225078
   41    43     0     0     0
SMALL
USER_CHARGES

@<TRIPOS>ATOM
      1 C1          1.4008   -1.8219   -1.4791 C.3       1 <0>        -0.2155
      2 C2          1.4221   -0.5777   -0.5889 C.3       1 <0>        -0.0037
      3 O1          0.1309    0.0836   -0.6504 O.3       1 <0>        -0.2712
      4 C3         -0.0180    1.2044    0.0826 C.2       1 <0>         0.3513
      5 O2          0.9059    1.6179    0.7548 O.2       1 <0>        -0.3599
      6 C4         -1.3038    1.9257    0.0738 C.ar      1 <0>        -0.1259
      7 C5         -2.3662    1.4546   -0.7037 C.ar      1 <0>        -0.0601
      8 C6         -3.5667    2.1276   -0.7058 C.ar      1 <0>        -0.1770
      9 C7         -3.7205    3.2820    0.0564 C.ar      1 <0>         0.0919
     10 C8         -2.6634    3.7568    0.8273 C.ar      1 <0>        -0.1321
     11 C9         -1.4619    3.0858    0.8383 C.ar      1 <0>        -0.0444
     12 N1         -4.9352    3.9635    0.0480 N.pl3     1 <0>        -0.2765
     13 C10        -4.9556    5.3293    0.1594 C.2       1 <0>         0.2112
     14 N2         -6.1461    5.9811    0.2710 N.am      1 <0>        -0.3079
     15 H1         -7.0081    5.4741    0.2723 H         1 <0>         0.2508
     16 C11        -6.1371    7.3297    0.3801 C.2       1 <0>         0.3145
     17 O3         -7.1778    7.9572    0.4819 O.2       1 <0>        -0.3395
     18 C12        -4.8888    7.9903    0.3722 C.2       1 <0>        -0.2042
     19 N3         -3.7880    7.2851    0.2607 N.2       1 <0>         0.0505
     20 N4         -3.8196    6.0044    0.1634 N.2       1 <0>        -0.1965
     21 C13        -4.8218    9.4911    0.4903 C.3       1 <0>         0.0013
     22 C14        -3.3818    9.9340    0.4554 C.2       1 <0>        -0.0468
     23 C15        -2.6819   10.2479   -0.6496 C.2       1 <0>        -0.1995
     24 C16        -1.3831   10.6086   -0.2230 C.2       1 <0>        -0.2177
     25 C17        -1.3646   10.4856    1.1164 C.2       1 <0>        -0.0971
     26 O4         -2.5779   10.0767    1.5218 O.3       1 <0>        -0.0519
     27 H2          0.6259   -2.5047   -1.1307 H         1 <0>         0.0850
     28 H3          1.1913   -1.5290   -2.5079 H         1 <0>         0.0860
     29 H4          2.3701   -2.3183   -1.4329 H         1 <0>         0.0901
     30 H5          2.1970    0.1051   -0.9373 H         1 <0>         0.0910
     31 H6          1.6316   -0.8706    0.4399 H         1 <0>         0.0897
     32 H7         -2.2463    0.5612   -1.2986 H         1 <0>         0.1530
     33 H8         -4.3890    1.7620   -1.3029 H         1 <0>         0.1346
     34 H9         -2.7862    4.6527    1.4179 H         1 <0>         0.1717
     35 H10        -0.6421    3.4545    1.4370 H         1 <0>         0.1643
     36 H11        -5.7668    3.4713   -0.0367 H         1 <0>         0.2458
     37 H12        -5.3619    9.9454   -0.3405 H         1 <0>         0.1241
     38 H13        -5.2749    9.8021    1.4316 H         1 <0>         0.1187
     39 H14        -3.0434   10.2301   -1.6671 H         1 <0>         0.1534
     40 H15        -0.5622   10.9196   -0.8522 H         1 <0>         0.1531
     41 H16        -0.5178   10.6826    1.7571 H         1 <0>         0.1954
@<TRIPOS>BOND
     1    1    2 1
     2    1   27 1
     3    1   28 1
     4    1   29 1
     5    2    3 1
     6    2   30 1
     7    2   31 1
     8    3    4 1
     9    4    5 2
    10    4    6 1
    11    6   11 ar
    12    6    7 ar
    13    7    8 ar
    14    7   32 1
    15    8    9 ar
    16    8   33 1
    17    9   10 ar
    18    9   12 1
    19   10   11 ar
    20   10   34 1
    21   11   35 1
    22   12   13 1
    23   12   36 1
    24   13   20 2
    25   13   14 1
    26   14   15 1
    27   14   16 am
    28   16   17 2
    29   16   18 1
    30   18   19 2
    31   18   21 1
    32   19   20 1
    33   21   22 1
    34   21   37 1
    35   21   38 1
    36   22   26 1
    37   22   23 2
    38   23   24 1
    39   23   39 1
    40   24   25 2
    41   24   40 1
    42   25   26 1
    43   25   41 1
@<TRIPOS>MOLECULE
ZINC04225078
   41    43     0     0     0
SMALL
USER_CHARGES

@<TRIPOS>ATOM
      1 C1          1.4007   -1.8222   -1.4775 C.3       1 <0>        -0.2158
      2 C2          1.4222   -0.5778   -0.5877 C.3       1 <0>        -0.0035
      3 O1          0.1309    0.0835   -0.6491 O.3       1 <0>        -0.2695
      4 C3         -0.0179    1.2045    0.0836 C.2       1 <0>         0.3514
      5 O2          0.9061    1.6182    0.7555 O.2       1 <0>        -0.3570
      6 C4         -1.3037    1.9257    0.0748 C.ar      1 <0>        -0.1327
      7 C5         -2.3662    1.4544   -0.7024 C.ar      1 <0>        -0.0394
      8 C6         -3.5667    2.1273   -0.7044 C.ar      1 <0>        -0.1750
      9 C7         -3.7204    3.2819    0.0575 C.ar      1 <0>         0.0888
     10 C8         -2.6632    3.7570    0.8281 C.ar      1 <0>        -0.2299
     11 C9         -1.4617    3.0860    0.8390 C.ar      1 <0>        -0.0245
     12 N1         -4.9351    3.9634    0.0491 N.pl3     1 <0>        -0.2726
     13 C10        -4.9556    5.3292    0.1601 C.2       1 <0>         0.2284
     14 N2         -6.1461    5.9810    0.2718 N.2       1 <0>        -0.3295
     15 H1         -2.9580    5.5033    0.0827 H         1 <0>         0.3003
     16 C11        -6.1371    7.3297    0.3805 C.2       1 <0>         0.2838
     17 O3         -7.1778    7.9572    0.4823 O.2       1 <0>        -0.3141
     18 C12        -4.8894    7.9912    0.3613 C.2       1 <0>        -0.1626
     19 N3         -3.7885    7.2859    0.2502 N.2       1 <0>        -0.0112
     20 N4         -3.8199    6.0048    0.1582 N.pl3     1 <0>        -0.2098
     21 C13        -4.8227    9.4925    0.4732 C.3       1 <0>        -0.0056
     22 C14        -3.3829    9.9357    0.4333 C.2       1 <0>        -0.0516
     23 C15        -2.6856   10.2454   -0.6745 C.2       1 <0>        -0.2052
     24 C16        -1.3860   10.6083   -0.2523 C.2       1 <0>        -0.2191
     25 C17        -1.3645   10.4908    1.0876 C.2       1 <0>        -0.1004
     26 O4         -2.5767   10.0831    1.4973 O.3       1 <0>        -0.0524
     27 H2          0.6259   -2.5050   -1.1288 H         1 <0>         0.0867
     28 H3          1.1911   -1.5296   -2.5064 H         1 <0>         0.0865
     29 H4          2.3701   -2.3186   -1.4314 H         1 <0>         0.0927
     30 H5          2.1970    0.1049   -0.9364 H         1 <0>         0.0915
     31 H6          1.6319   -0.8704    0.4412 H         1 <0>         0.0918
     32 H7         -2.2464    0.5608   -1.2970 H         1 <0>         0.1602
     33 H8         -4.3891    1.7616   -1.3013 H         1 <0>         0.1490
     34 H9         -2.7859    4.6530    1.4184 H         1 <0>         0.1572
     35 H10        -0.6418    3.4549    1.4375 H         1 <0>         0.1674
     36 H11        -5.7667    3.4712   -0.0353 H         1 <0>         0.2776
     37 H12        -5.3648    9.9432   -0.3583 H         1 <0>         0.1343
     38 H13        -5.2738    9.8071    1.4142 H         1 <0>         0.1292
     39 H14        -3.0493   10.2234   -1.6911 H         1 <0>         0.1549
     40 H15        -0.5666   10.9171   -0.8845 H         1 <0>         0.1537
     41 H16        -0.5163   10.6907    1.7256 H         1 <0>         0.1961
@<TRIPOS>BOND
     1    1    2 1
     2    1   27 1
     3    1   28 1
     4    1   29 1
     5    2    3 1
     6    2   30 1
     7    2   31 1
     8    3    4 1
     9    4    5 2
    10    4    6 1
    11    6   11 ar
    12    6    7 ar
    13    7    8 ar
    14    7   32 1
    15    8    9 ar
    16    8   33 1
    17    9   10 ar
    18    9   12 1
    19   10   11 ar
    20   10   34 1
    21   11   35 1
    22   12   13 1
    23   12   36 1
    24   13   20 1
    25   13   14 2
    26   14   16 1
    27   15   20 1
    28   16   17 2
    29   16   18 1
    30   18   21 1
    31   18   19 2
    32   19   20 1
    33   21   22 1
    34   21   37 1
    35   21   38 1
    36   22   26 1
    37   22   23 2
    38   23   24 1
    39   23   39 1
    40   24   25 2
    41   24   40 1
    42   25   26 1
    43   25   41 1
@<TRIPOS>MOLECULE
ZINC04225078
   41    43     0     0     0
SMALL
USER_CHARGES

@<TRIPOS>ATOM
      1 C1          1.4011   -1.8224   -1.4753 C.3       1 <0>        -0.2155
      2 C2          1.4223   -0.5780   -0.5855 C.3       1 <0>        -0.0037
      3 O1          0.1311    0.0833   -0.6474 O.3       1 <0>        -0.2712
      4 C3         -0.0179    1.2043    0.0853 C.2       1 <0>         0.3526
      5 O2          0.9059    1.6180    0.7575 O.2       1 <0>        -0.3642
      6 C4         -1.3037    1.9256    0.0761 C.ar      1 <0>        -0.1339
      7 C5         -2.3660    1.4543   -0.7014 C.ar      1 <0>        -0.0593
      8 C6         -3.5665    2.1273   -0.7039 C.ar      1 <0>        -0.1807
      9 C7         -3.7204    3.2819    0.0579 C.ar      1 <0>         0.0995
     10 C8         -2.6635    3.7569    0.8289 C.ar      1 <0>        -0.1404
     11 C9         -1.4620    3.0859    0.8402 C.ar      1 <0>        -0.0445
     12 N1         -4.9351    3.9634    0.0492 N.pl3     1 <0>        -0.2492
     13 C10        -4.9556    5.3292    0.1602 C.ar      1 <0>         0.1851
     14 N2         -6.1461    5.9811    0.2710 N.ar      1 <0>        -0.2887
     15 H1         -6.9729    8.9335    0.5516 H         1 <0>         0.2757
     16 C11        -6.1371    7.3297    0.3801 C.ar      1 <0>         0.2209
     17 O3         -7.1778    7.9572    0.4824 O.3       1 <0>        -0.1662
     18 C12        -4.8893    7.9912    0.3613 C.ar      1 <0>        -0.3122
     19 N3         -3.7885    7.2859    0.2506 N.ar      1 <0>         0.0795
     20 N4         -3.8198    6.0048    0.1589 N.ar      1 <0>        -0.1968
     21 C13        -4.8227    9.4924    0.4732 C.3       1 <0>        -0.0194
     22 C14        -3.3829    9.9357    0.4334 C.2       1 <0>        -0.0431
     23 C15        -2.6856   10.2454   -0.6744 C.2       1 <0>        -0.1919
     24 C16        -1.3860   10.6083   -0.2522 C.2       1 <0>        -0.2165
     25 C17        -1.3645   10.4907    1.0877 C.2       1 <0>        -0.0907
     26 O4         -2.5767   10.0830    1.4974 O.3       1 <0>        -0.0506
     27 H2          0.6261   -2.5051   -1.1268 H         1 <0>         0.0851
     28 H3          1.1918   -1.5298   -2.5042 H         1 <0>         0.0857
     29 H4          2.3704   -2.3188   -1.4288 H         1 <0>         0.0888
     30 H5          2.1972    0.1047   -0.9339 H         1 <0>         0.0898
     31 H6          1.6316   -0.8706    0.4435 H         1 <0>         0.0890
     32 H7         -2.2460    0.5607   -1.2961 H         1 <0>         0.1505
     33 H8         -4.3887    1.7615   -1.3010 H         1 <0>         0.1364
     34 H9         -2.7864    4.6530    1.4192 H         1 <0>         0.1679
     35 H10        -0.6423    3.4548    1.4390 H         1 <0>         0.1606
     36 H11        -5.7667    3.4712   -0.0355 H         1 <0>         0.2593
     37 H12        -5.3648    9.9432   -0.3582 H         1 <0>         0.1041
     38 H13        -5.2738    9.8071    1.4143 H         1 <0>         0.0994
     39 H14        -3.0493   10.2234   -1.6911 H         1 <0>         0.1542
     40 H15        -0.5666   10.9171   -0.8844 H         1 <0>         0.1560
     41 H16        -0.5163   10.6906    1.7257 H         1 <0>         0.1985
@<TRIPOS>BOND
     1    1    2 1
     2    1   27 1
     3    1   28 1
     4    1   29 1
     5    2    3 1
     6    2   30 1
     7    2   31 1
     8    3    4 1
     9    4    5 2
    10    4    6 1
    11    6   11 ar
    12    6    7 ar
    13    7    8 ar
    14    7   32 1
    15    8    9 ar
    16    8   33 1
    17    9   10 ar
    18    9   12 1
    19   10   11 ar
    20   10   34 1
    21   11   35 1
    22   12   13 1
    23   12   36 1
    24   13   20 ar
    25   13   14 ar
    26   14   16 ar
    27   15   17 1
    28   16   17 1
    29   16   18 ar
    30   18   21 1
    31   18   19 ar
    32   19   20 ar
    33   21   22 1
    34   21   37 1
    35   21   38 1
    36   22   26 1
    37   22   23 2
    38   23   24 1
    39   23   39 1
    40   24   25 2
    41   24   40 1
    42   25   26 1
    43   25   41 1
@<TRIPOS>MOLECULE
ZINC04229215
   39    41     0     0     0
SMALL
USER_CHARGES

@<TRIPOS>ATOM
      1 C1          1.1505    3.5924    0.0099 C.3       1 <0>        -0.1830
      2 C2          1.1709    2.0855    0.0021 C.ar      1 <0>        -0.0203
      3 C3         -0.0167    1.3781    0.0096 C.ar      1 <0>        -0.1585
      4 C4          0.0021   -0.0041    0.0020 C.ar      1 <0>        -0.0278
      5 C5          1.2084   -0.6789   -0.0132 C.ar      1 <0>        -0.7600
      6 C6          2.3961    0.0285   -0.0212 C.ar      1 <0>         0.0017
      7 C7          2.3773    1.4107   -0.0145 C.ar      1 <0>        -0.1546
      8 S1          1.2323   -2.4407   -0.0217 S.o2      1 <0>         2.7824
      9 O1          2.4885   -2.8324    0.5148 O.2       1 <0>        -0.8914
     10 O2         -0.0018   -2.8663    0.5395 O.2       1 <0>        -0.9193
     11 N1          1.2232   -2.9228   -1.6059 N.pl3     1 <0>        -0.8110
     12 N2          2.2603   -2.5322   -2.4630 N.2       1 <0>         0.0515
     13 C8          2.2532   -2.9103   -3.7056 C.2       1 <0>        -0.1075
     14 C9          3.3427   -2.4999   -4.6060 C.2       1 <0>        -0.1235
     15 C10         3.3430   -2.8973   -5.9278 C.2       1 <0>        -0.0355
     16 C11         4.4052   -2.4861   -6.7713 C.ar      1 <0>        -0.1221
     17 C12         4.4296   -2.8755   -8.1187 C.ar      1 <0>        -0.0670
     18 C13         5.4561   -2.4747   -8.9239 C.ar      1 <0>        -0.1647
     19 C14         6.4797   -1.6828   -8.4208 C.ar      1 <0>        -0.0702
     20 C15         6.4775   -1.2877   -7.1008 C.ar      1 <0>        -0.1850
     21 C16         5.4415   -1.6835   -6.2590 C.ar      1 <0>         0.1060
     22 N3          5.4356   -1.2895   -4.9363 N.am      1 <0>        -0.2813
     23 H1          6.1818   -0.7227   -4.5871 H         1 <0>         0.2564
     24 C17         4.4388   -1.6579   -4.1099 C.2       1 <0>         0.3351
     25 O3          4.4485   -1.2959   -2.9470 O.2       1 <0>        -0.3286
     26 H2          1.1552    3.9504    1.0394 H         1 <0>         0.0922
     27 H3          2.0306    3.9704   -0.5103 H         1 <0>         0.0856
     28 H4          0.2509    3.9462   -0.4937 H         1 <0>         0.0839
     29 H5         -0.9592    1.9054    0.0170 H         1 <0>         0.1332
     30 H6         -0.9258   -0.5567    0.0083 H         1 <0>         0.1439
     31 H7          3.3386   -0.4987   -0.0324 H         1 <0>         0.1659
     32 H8          3.3052    1.9634   -0.0205 H         1 <0>         0.1370
     33 H9          0.4998   -3.4757   -1.9405 H         1 <0>         0.2209
     34 H10         1.4478   -3.5259   -4.0780 H         1 <0>         0.1236
     35 H11         2.5442   -3.5129   -6.3143 H         1 <0>         0.1420
     36 H12         3.6377   -3.4917   -8.5182 H         1 <0>         0.1376
     37 H13         5.4726   -2.7762   -9.9608 H         1 <0>         0.1366
     38 H14         7.2854   -1.3739   -9.0703 H         1 <0>         0.1369
     39 H15         7.2784   -0.6715   -6.7196 H         1 <0>         0.1389
@<TRIPOS>BOND
     1    1    2 1
     2    1   26 1
     3    1   27 1
     4    1   28 1
     5    2    7 ar
     6    2    3 ar
     7    3    4 ar
     8    3   29 1
     9    4    5 ar
    10    4   30 1
    11    5    6 ar
    12    5    8 1
    13    6    7 ar
    14    6   31 1
    15    7   32 1
    16    8    9 2
    17    8   10 2
    18    8   11 1
    19   11   12 1
    20   11   33 1
    21   12   13 2
    22   13   14 1
    23   13   34 1
    24   14   24 1
    25   14   15 2
    26   15   16 1
    27   15   35 1
    28   16   21 ar
    29   16   17 ar
    30   17   18 ar
    31   17   36 1
    32   18   19 ar
    33   18   37 1
    34   19   20 ar
    35   19   38 1
    36   20   21 ar
    37   20   39 1
    38   21   22 1
    39   22   23 1
    40   22   24 am
    41   24   25 2
@<TRIPOS>MOLECULE
ZINC04229215
   39    41     0     0     0
SMALL
USER_CHARGES

@<TRIPOS>ATOM
      1 C1          1.1343    3.5719    0.0160 C.3       1 <0>        -0.1849
      2 C2          1.1619    2.0651    0.0083 C.ar      1 <0>        -0.0149
      3 C3         -0.0222    1.3520    0.0175 C.ar      1 <0>        -0.1529
      4 C4          0.0032   -0.0301    0.0100 C.ar      1 <0>        -0.0249
      5 C5          1.2128   -0.6991   -0.0070 C.ar      1 <0>        -0.7666
      6 C6          2.3970    0.0140   -0.0168 C.ar      1 <0>        -0.0175
      7 C7          2.3716    1.3961   -0.0101 C.ar      1 <0>        -0.1486
      8 S1          1.2452   -2.4608   -0.0155 S.o2      1 <0>         2.7732
      9 O1          2.5040   -2.8464    0.5192 O.2       1 <0>        -0.8918
     10 O2          0.0140   -2.8923    0.5476 O.2       1 <0>        -0.9053
     11 N1          1.2360   -2.9430   -1.5996 N.pl3     1 <0>        -0.7962
     12 N2          2.2700   -2.5474   -2.4583 N.2       1 <0>        -0.0843
     13 C8          2.2629   -2.9256   -3.7008 C.2       1 <0>        -0.0425
     14 C9          3.3491   -2.5100   -4.6029 C.ar      1 <0>        -0.2495
     15 C10         3.3523   -2.9121   -5.9232 C.ar      1 <0>         0.0114
     16 C11         4.4142   -2.5005   -6.7669 C.ar      1 <0>        -0.1531
     17 C12         4.4416   -2.8947   -8.1128 C.ar      1 <0>        -0.0839
     18 C13         5.4677   -2.4932   -8.9183 C.ar      1 <0>        -0.1564
     19 C14         6.4882   -1.6964   -8.4166 C.ar      1 <0>        -0.0907
     20 C15         6.4864   -1.3019   -7.0964 C.ar      1 <0>        -0.1265
     21 C16         5.4475   -1.6930   -6.2561 C.ar      1 <0>         0.0969
     22 N3          5.4359   -1.2901   -4.9361 N.ar      1 <0>        -0.2450
     23 H1          3.6398   -1.6534   -2.4799 H         1 <0>         0.3043
     24 C17         4.4392   -1.6585   -4.1097 C.ar      1 <0>         0.2446
     25 O3          4.4466   -1.2929   -2.9479 O.3       1 <0>        -0.1988
     26 H2          1.1388    3.9299    1.0455 H         1 <0>         0.0956
     27 H3          2.0118    3.9541   -0.5055 H         1 <0>         0.0894
     28 H4          0.2322    3.9213   -0.4863 H         1 <0>         0.0867
     29 H5         -0.9672    1.8747    0.0263 H         1 <0>         0.1377
     30 H6         -0.9220   -0.5872    0.0176 H         1 <0>         0.1468
     31 H7          3.3420   -0.5086   -0.0293 H         1 <0>         0.1551
     32 H8          3.2968    1.9533   -0.0175 H         1 <0>         0.1425
     33 H9          0.5148   -3.4994   -1.9331 H         1 <0>         0.2340
     34 H10         1.4599   -3.5451   -4.0720 H         1 <0>         0.1332
     35 H11         2.5563   -3.5321   -6.3084 H         1 <0>         0.1363
     36 H12         3.6522   -3.5148   -8.5111 H         1 <0>         0.1285
     37 H13         5.4863   -2.7981   -9.9541 H         1 <0>         0.1316
     38 H14         7.2938   -1.3873   -9.0662 H         1 <0>         0.1341
     39 H15         7.2874   -0.6858   -6.7152 H         1 <0>         0.1528
@<TRIPOS>BOND
     1    1    2 1
     2    1   26 1
     3    1   27 1
     4    1   28 1
     5    2    7 ar
     6    2    3 ar
     7    3    4 ar
     8    3   29 1
     9    4    5 ar
    10    4   30 1
    11    5    6 ar
    12    5    8 1
    13    6    7 ar
    14    6   31 1
    15    7   32 1
    16    8    9 2
    17    8   10 2
    18    8   11 1
    19   11   12 1
    20   11   33 1
    21   12   13 2
    22   13   14 1
    23   13   34 1
    24   14   24 ar
    25   14   15 ar
    26   15   35 1
    27   15   16 ar
    28   16   17 ar
    29   16   21 ar
    30   17   18 ar
    31   17   36 1
    32   18   19 ar
    33   18   37 1
    34   19   20 ar
    35   19   38 1
    36   20   21 ar
    37   20   39 1
    38   21   22 ar
    39   22   24 ar
    40   23   25 1
    41   24   25 1
@<TRIPOS>MOLECULE
ZINC04239409
   45    47     0     0     0
SMALL
USER_CHARGES

@<TRIPOS>ATOM
      1 C1          2.4447    1.0408    0.1264 C.3       1 <0>        -0.0539
      2 N1          1.2376    1.8658    0.0343 N.am      1 <0>        -0.3506
      3 C2          1.3511    3.3245   -0.0389 C.3       1 <0>        -0.0747
      4 C3          0.0226    1.2827    0.0169 C.2       1 <0>         0.3500
      5 O1         -0.0701    0.0731   -0.0639 O.2       1 <0>        -0.3651
      6 C4         -1.1961    2.1133    0.0899 C.ar      1 <0>        -0.1267
      7 C5         -1.0957    3.5067    0.0529 C.ar      1 <0>        -0.1633
      8 C6         -2.2324    4.2798    0.1157 C.ar      1 <0>        -0.1536
      9 C7         -3.4844    3.6730    0.2275 C.ar      1 <0>        -0.0014
     10 C8         -3.5852    2.2815    0.2702 C.ar      1 <0>        -0.1336
     11 C9         -2.4500    1.5066    0.2018 C.ar      1 <0>        -0.0609
     12 C10        -4.7070    4.5062    0.3002 C.ar      1 <0>        -0.2400
     13 C11        -5.7989    4.2517   -0.5284 C.ar      1 <0>         0.0395
     14 N2         -6.8719    5.0203   -0.4312 N.ar      1 <0>        -0.2556
     15 C12        -6.9219    6.0158    0.4320 C.ar      1 <0>         0.0621
     16 N3         -5.9173    6.2973    1.2366 N.ar      1 <0>        -0.2814
     17 C13        -4.8022    5.5745    1.2122 C.ar      1 <0>         0.2180
     18 N4         -3.7529    5.8699    2.0626 N.pl3     1 <0>        -0.3511
     19 C14        -3.8664    6.9847    3.0063 C.3       1 <0>        -0.0003
     20 C15        -2.5772    7.0950    3.8229 C.3       1 <0>        -0.1057
     21 C16        -2.6940    8.2417    4.7937 C.2       1 <0>        -0.1454
     22 C17        -2.4265    9.5373    4.5416 C.2       1 <0>        -0.1390
     23 N5         -2.6580   10.2346    5.6638 N.2       1 <0>        -0.1683
     24 C18        -3.0506    9.4192    6.6039 C.2       1 <0>        -0.0881
     25 N6         -3.0867    8.1658    6.1027 N.pl3     1 <0>        -0.1799
     26 H1         -3.3510    7.3369    6.5958 H         1 <0>         0.2491
     27 H2          2.7850    0.7816   -0.8762 H         1 <0>         0.0759
     28 H3          3.2267    1.5975    0.6428 H         1 <0>         0.0735
     29 H4          2.2206    0.1296    0.6810 H         1 <0>         0.1064
     30 H5          0.9014    3.7690    0.8490 H         1 <0>         0.0841
     31 H6          2.4030    3.6049   -0.0926 H         1 <0>         0.0852
     32 H7          0.8332    3.6851   -0.9277 H         1 <0>         0.0927
     33 H8         -0.1267    3.9765   -0.0290 H         1 <0>         0.1822
     34 H9         -2.1554    5.3566    0.0827 H         1 <0>         0.1371
     35 H10        -4.5543    1.8129    0.3567 H         1 <0>         0.1415
     36 H11        -2.5282    0.4299    0.2349 H         1 <0>         0.1592
     37 H12        -5.7694    3.4393   -1.2395 H         1 <0>         0.1703
     38 H13        -7.8157    6.6201    0.4813 H         1 <0>         0.1960
     39 H14        -2.9415    5.3391    2.0343 H         1 <0>         0.2451
     40 H15        -4.0283    7.9116    2.4560 H         1 <0>         0.1039
     41 H16        -4.7074    6.8087    3.6770 H         1 <0>         0.0957
     42 H17        -2.4153    6.1681    4.3732 H         1 <0>         0.0868
     43 H18        -1.7363    7.2710    3.1521 H         1 <0>         0.1026
     44 H19        -2.0875    9.9438    3.6003 H         1 <0>         0.1789
     45 H20        -3.3049    9.7003    7.6152 H         1 <0>         0.2029
@<TRIPOS>BOND
     1    1    2 1
     2    1   27 1
     3    1   28 1
     4    1   29 1
     5    2    3 1
     6    2    4 am
     7    3   30 1
     8    3   31 1
     9    3   32 1
    10    4    5 2
    11    4    6 1
    12    6   11 ar
    13    6    7 ar
    14    7    8 ar
    15    7   33 1
    16    8    9 ar
    17    8   34 1
    18    9   10 ar
    19    9   12 1
    20   10   11 ar
    21   10   35 1
    22   11   36 1
    23   12   17 ar
    24   12   13 ar
    25   13   14 ar
    26   13   37 1
    27   14   15 ar
    28   15   16 ar
    29   15   38 1
    30   16   17 ar
    31   17   18 1
    32   18   19 1
    33   18   39 1
    34   19   20 1
    35   19   40 1
    36   19   41 1
    37   20   21 1
    38   20   42 1
    39   20   43 1
    40   21   25 1
    41   21   22 2
    42   22   23 1
    43   22   44 1
    44   23   24 2
    45   24   25 1
    46   24   45 1
    47   25   26 1
@<TRIPOS>MOLECULE
ZINC04249870
   41    43     0     0     0
SMALL
USER_CHARGES

@<TRIPOS>ATOM
      1 C1          3.3886   -0.7365    1.1873 C.3       1 <0>        -0.1763
      2 C2          2.2454    0.0143    0.5545 C.ar      1 <0>        -0.0558
      3 C3          1.2107   -0.6801   -0.0454 C.ar      1 <0>        -0.1397
      4 C4          0.1603    0.0050   -0.6275 C.ar      1 <0>        -0.1102
      5 C5          0.1409    1.3861   -0.6108 C.ar      1 <0>        -0.1367
      6 C6          1.1780    2.0863   -0.0090 C.ar      1 <0>         0.0622
      7 C7          2.2320    1.3950    0.5745 C.ar      1 <0>        -0.1088
      8 C8          3.3594    2.1509    1.2292 C.3       1 <0>        -0.1778
      9 N1          1.1616    3.4853    0.0092 N.am      1 <0>        -0.3115
     10 C9         -0.0095    4.1467   -0.0782 C.2       1 <0>         0.3189
     11 O1         -1.0550    3.5321   -0.0717 O.2       1 <0>        -0.3435
     12 C10        -0.0198    5.6500   -0.1841 C.3       1 <0>        -0.3162
     13 S1         -1.7331    6.2373   -0.2853 S.3       1 <0>         0.3249
     14 C11        -1.5772    7.9884   -0.4028 C.2       1 <0>        -0.1898
     15 N2         -0.4535    8.6631   -0.4112 N.2       1 <0>        -0.0874
     16 N3         -0.7635   10.0249   -0.5174 N.2       1 <0>        -0.1228
     17 C12        -2.0682   10.1423   -0.5708 C.2       1 <0>         0.1030
     18 N4         -2.6085    8.8832   -0.5072 N.pl3     1 <0>        -0.1408
     19 C13        -3.9737    8.7138   -0.5366 C.2       1 <0>         0.0746
     20 C14        -4.7851    9.7813   -0.6396 C.2       1 <0>        -0.2598
     21 C15        -4.2331   11.0848   -0.7119 C.2       1 <0>         0.3468
     22 O2         -4.9648   12.0541   -0.8048 O.2       1 <0>        -0.3364
     23 N5         -2.8951   11.2480   -0.6770 N.am      1 <0>        -0.2817
     24 H1         -2.5008   12.1656   -0.7277 H         1 <0>         0.2809
     25 C16        -4.5609    7.3280   -0.4593 C.3       1 <0>        -0.1954
     26 H2          4.1706   -0.9000    0.4459 H         1 <0>         0.0870
     27 H3          3.7903   -0.1548    2.0170 H         1 <0>         0.0842
     28 H4          3.0316   -1.6978    1.5568 H         1 <0>         0.0837
     29 H5          1.2234   -1.7600   -0.0594 H         1 <0>         0.1312
     30 H6         -0.6460   -0.5402   -1.0954 H         1 <0>         0.1345
     31 H7         -0.6778    1.9208   -1.0693 H         1 <0>         0.1681
     32 H8          4.1382    2.3511    0.4933 H         1 <0>         0.0838
     33 H9          2.9827    3.0940    1.6253 H         1 <0>         0.0732
     34 H10         3.7727    1.5545    2.0425 H         1 <0>         0.0936
     35 H11         1.9930    3.9792    0.0848 H         1 <0>         0.2380
     36 H12         0.4602    6.0794    0.6953 H         1 <0>         0.1379
     37 H13         0.5223    5.9549   -1.0792 H         1 <0>         0.1394
     38 H14        -5.8562    9.6455   -0.6675 H         1 <0>         0.1847
     39 H15        -5.6482    7.3913   -0.5011 H         1 <0>         0.1098
     40 H16        -4.1991    6.7328   -1.2977 H         1 <0>         0.1147
     41 H17        -4.2600    6.8577    0.4768 H         1 <0>         0.1152
@<TRIPOS>BOND
     1    1    2 1
     2    1   26 1
     3    1   27 1
     4    1   28 1
     5    2    7 ar
     6    2    3 ar
     7    3    4 ar
     8    3   29 1
     9    4    5 ar
    10    4   30 1
    11    5    6 ar
    12    5   31 1
    13    6    7 ar
    14    6    9 1
    15    7    8 1
    16    8   32 1
    17    8   33 1
    18    8   34 1
    19    9   10 am
    20    9   35 1
    21   10   11 2
    22   10   12 1
    23   12   13 1
    24   12   36 1
    25   12   37 1
    26   13   14 1
    27   14   18 1
    28   14   15 2
    29   15   16 1
    30   16   17 2
    31   17   23 1
    32   17   18 1
    33   18   19 1
    34   19   20 2
    35   19   25 1
    36   20   21 1
    37   20   38 1
    38   21   22 2
    39   21   23 am
    40   23   24 1
    41   25   39 1
    42   25   40 1
    43   25   41 1
@<TRIPOS>MOLECULE
ZINC04252233
   42    45     0     0     0
SMALL
USER_CHARGES

@<TRIPOS>ATOM
      1 C1         -0.0127    1.0858    0.0080 C.3       1 <0>        -0.0618
      2 O1         -0.6816    1.5467    1.1837 O.3       1 <0>        -0.2111
      3 C2         -0.7875    2.8926    1.3463 C.ar      1 <0>         0.1111
      4 C3         -0.2553    3.7496    0.3882 C.ar      1 <0>        -0.2250
      5 C4         -0.3555    5.1142    0.5403 C.ar      1 <0>        -0.0354
      6 C5         -0.9959    5.6435    1.6635 C.ar      1 <0>        -0.0737
      7 C6         -1.5324    4.7759    2.6285 C.ar      1 <0>        -0.0029
      8 C7         -1.4290    3.4032    2.4610 C.ar      1 <0>        -0.1710
      9 N1         -2.0930    5.5836    3.6044 N.pl3     1 <0>        -0.2052
     10 H1         -2.5588    5.2753    4.4338 H         1 <0>         0.2626
     11 C8         -1.8909    6.8806    3.2225 C.2       1 <0>        -0.1309
     12 N2         -1.2465    6.9131    2.0826 N.2       1 <0>        -0.1932
     13 S1         -2.4183    8.2969    4.1283 S.3       1 <0>         0.3092
     14 C9         -1.8156    9.6098    3.0377 C.3       1 <0>        -0.3039
     15 C10        -2.1637   10.9521    3.6277 C.2       1 <0>         0.3259
     16 O2         -2.7605   11.0150    4.6818 O.2       1 <0>        -0.3387
     17 N3         -1.8117   12.0828    2.9841 N.am      1 <0>        -0.2841
     18 C11        -1.0824   12.0339    1.7080 C.3       1 <0>        -0.0389
     19 C12        -0.0075   13.0855    1.7113 C.2       1 <0>         0.2969
     20 O3          1.0028   12.9104    1.0635 O.2       1 <0>        -0.3425
     21 N4         -0.1508   14.2166    2.4275 N.am      1 <0>        -0.3067
     22 C13        -1.2839   14.4210    3.2222 C.ar      1 <0>         0.0423
     23 C14        -2.1245   13.3447    3.5132 C.ar      1 <0>         0.0273
     24 C15        -3.2411   13.5292    4.3078 C.ar      1 <0>        -0.0989
     25 C16        -3.5249   14.7865    4.8117 C.ar      1 <0>        -0.1347
     26 C17        -2.6965   15.8548    4.5217 C.ar      1 <0>        -0.1111
     27 C18        -1.5774   15.6766    3.7288 C.ar      1 <0>        -0.1541
     28 H2          0.0021   -0.0041    0.0020 H         1 <0>         0.1088
     29 H3          1.0099    1.4631    0.0003 H         1 <0>         0.0691
     30 H4         -0.5399    1.4469   -0.8751 H         1 <0>         0.0688
     31 H5          0.2400    3.3417   -0.4805 H         1 <0>         0.1395
     32 H6          0.0604    5.7740   -0.2067 H         1 <0>         0.1430
     33 H7         -1.8448    2.7346    3.2003 H         1 <0>         0.1428
     34 H8         -0.7336    9.5279    2.9342 H         1 <0>         0.1442
     35 H9         -2.2829    9.5114    2.0579 H         1 <0>         0.1403
     36 H10        -0.6295   11.0502    1.5843 H         1 <0>         0.1388
     37 H11        -1.7723   12.2251    0.8861 H         1 <0>         0.1183
     38 H12         0.5392   14.8975    2.3918 H         1 <0>         0.2497
     39 H13        -3.8889   12.6953    4.5347 H         1 <0>         0.1727
     40 H14        -4.3961   14.9337    5.4328 H         1 <0>         0.1394
     41 H15        -2.9245   16.8338    4.9167 H         1 <0>         0.1357
     42 H16        -0.9334   16.5144    3.5054 H         1 <0>         0.1375
@<TRIPOS>BOND
     1    1    2 1
     2    1   28 1
     3    1   29 1
     4    1   30 1
     5    2    3 1
     6    3    8 ar
     7    3    4 ar
     8    4    5 ar
     9    4   31 1
    10    5    6 ar
    11    5   32 1
    12    6   12 1
    13    6    7 ar
    14    7    8 ar
    15    7    9 1
    16    8   33 1
    17    9   10 1
    18    9   11 1
    19   11   12 2
    20   11   13 1
    21   13   14 1
    22   14   15 1
    23   14   34 1
    24   14   35 1
    25   15   16 2
    26   15   17 am
    27   17   23 1
    28   17   18 1
    29   18   19 1
    30   18   36 1
    31   18   37 1
    32   19   20 2
    33   19   21 am
    34   21   22 1
    35   21   38 1
    36   22   27 ar
    37   22   23 ar
    38   23   24 ar
    39   24   25 ar
    40   24   39 1
    41   25   26 ar
    42   25   40 1
    43   26   27 ar
    44   26   41 1
    45   27   42 1
@<TRIPOS>MOLECULE
ZINC04252423
   39    42     0     0     0
SMALL
USER_CHARGES

@<TRIPOS>ATOM
      1 C1         -0.0127    1.0858    0.0080 C.3       1 <0>        -0.0620
      2 O1         -0.6816    1.5467    1.1837 O.3       1 <0>        -0.2105
      3 C2         -0.1484    1.1819    2.3804 C.ar      1 <0>         0.1126
      4 C3          0.9979    0.3945    2.4163 C.ar      1 <0>        -0.2249
      5 C4          1.5480    0.0180    3.6208 C.ar      1 <0>        -0.0344
      6 C5          0.9526    0.4290    4.8159 C.ar      1 <0>        -0.0751
      7 C6         -0.2041    1.2241    4.7764 C.ar      1 <0>        -0.0020
      8 C7         -0.7456    1.6004    3.5565 C.ar      1 <0>        -0.1715
      9 N1         -0.5517    1.4654    6.0955 N.pl3     1 <0>        -0.2056
     10 H1         -1.3325    2.0027    6.4143 H         1 <0>         0.2628
     11 C8          0.3714    0.8323    6.8803 C.2       1 <0>        -0.1194
     12 N2          1.2536    0.2245    6.1266 N.2       1 <0>        -0.1867
     13 S1          0.3741    0.8337    8.6423 S.3       1 <0>         0.2426
     14 C9          1.8434   -0.1758    8.9551 C.3       1 <0>        -0.2270
     15 C10         2.0501   -0.3152   10.4414 C.2       1 <0>         0.0152
     16 C11         1.4854   -1.3402   11.1312 C.2       1 <0>        -0.2347
     17 C12         1.6940   -1.4491   12.5215 C.2       1 <0>         0.3538
     18 O2          1.1820   -2.3730   13.1277 O.2       1 <0>        -0.2940
     19 O3          2.4421   -0.5604   13.1940 O.3       1 <0>        -0.1688
     20 C13         3.0313    0.4813   12.5687 C.ar      1 <0>         0.1370
     21 C14         2.8700    0.6473   11.1802 C.ar      1 <0>        -0.1540
     22 C15         3.4739    1.7288   10.5293 C.ar      1 <0>        -0.0568
     23 C16         4.2287    2.6143   11.2429 C.ar      1 <0>        -0.1796
     24 C17         4.3966    2.4521   12.6165 C.ar      1 <0>         0.1231
     25 C18         3.8009    1.3904   13.2781 C.ar      1 <0>        -0.1774
     26 O4          5.1502    3.3413   13.3122 O.3       1 <0>        -0.2861
     27 H2          0.0021   -0.0041    0.0020 H         1 <0>         0.0694
     28 H3          1.0099    1.4631    0.0003 H         1 <0>         0.0689
     29 H4         -0.5399    1.4469   -0.8751 H         1 <0>         0.1095
     30 H5          1.4592    0.0761    1.4931 H         1 <0>         0.1401
     31 H6          2.4377   -0.5939    3.6418 H         1 <0>         0.1434
     32 H7         -1.6328    2.2153    3.5244 H         1 <0>         0.1435
     33 H8          1.7070   -1.1628    8.5132 H         1 <0>         0.1387
     34 H9          2.7153    0.3040    8.5105 H         1 <0>         0.1332
     35 H10         0.8786   -2.0701   10.6161 H         1 <0>         0.1758
     36 H11         3.3473    1.8596    9.4647 H         1 <0>         0.1487
     37 H12         4.6986    3.4464   10.7395 H         1 <0>         0.1494
     38 H13         3.9354    1.2716   14.3431 H         1 <0>         0.1649
     39 H14         6.0863    3.1051   13.3674 H         1 <0>         0.2379
@<TRIPOS>BOND
     1    1    2 1
     2    1   27 1
     3    1   28 1
     4    1   29 1
     5    2    3 1
     6    3    8 ar
     7    3    4 ar
     8    4    5 ar
     9    4   30 1
    10    5    6 ar
    11    5   31 1
    12    6   12 1
    13    6    7 ar
    14    7    8 ar
    15    7    9 1
    16    8   32 1
    17    9   10 1
    18    9   11 1
    19   11   12 2
    20   11   13 1
    21   13   14 1
    22   14   15 1
    23   14   33 1
    24   14   34 1
    25   15   21 1
    26   15   16 2
    27   16   17 1
    28   16   35 1
    29   17   18 2
    30   17   19 1
    31   19   20 1
    32   20   25 ar
    33   20   21 ar
    34   21   22 ar
    35   22   23 ar
    36   22   36 1
    37   23   24 ar
    38   23   37 1
    39   24   25 ar
    40   24   26 1
    41   25   38 1
    42   26   39 1
@<TRIPOS>MOLECULE
ZINC04257391
   39    41     0     0     0
SMALL
USER_CHARGES

@<TRIPOS>ATOM
      1 C1         -6.3015   -1.8096    6.8348 C.3       1 <0>        -0.0507
      2 N1         -5.1660   -1.5356    7.7190 N.pl3     1 <0>        -0.3393
      3 C2         -4.0309   -0.9350    7.2174 C.ar      1 <0>         0.2317
      4 C3         -2.9215   -0.6620    8.0567 C.ar      1 <0>        -0.1973
      5 C4         -2.9243   -0.9847    9.4177 C.ar      1 <0>        -0.0870
      6 C5         -1.8285   -0.6996   10.1786 C.ar      1 <0>        -0.1473
      7 C6         -0.7080   -0.0920    9.6192 C.ar      1 <0>        -0.0940
      8 C7         -0.6733    0.2353    8.2963 C.ar      1 <0>        -0.1187
      9 C8         -1.7824   -0.0436    7.4849 C.ar      1 <0>         0.0890
     10 N2         -1.7964    0.2531    6.1783 N.ar      1 <0>        -0.2510
     11 C9         -2.8579   -0.0184    5.4426 C.ar      1 <0>         0.1587
     12 N3         -3.9490   -0.5987    5.9391 N.ar      1 <0>        -0.3026
     13 C10        -2.8324    0.3317    4.0019 C.ar      1 <0>        -0.0334
     14 C11        -3.9354    0.0537    3.1952 C.ar      1 <0>        -0.0774
     15 C12        -3.9103    0.3806    1.8544 C.ar      1 <0>        -0.1418
     16 C13        -2.7959    0.9885    1.3076 C.ar      1 <0>        -0.0910
     17 C14        -1.6900    1.2646    2.1025 C.ar      1 <0>         0.0119
     18 C15        -1.7071    0.9393    3.4508 C.ar      1 <0>        -0.0902
     19 N4         -0.5637    1.8747    1.5450 N.pl3     1 <0>        -0.8229
     20 S1          0.4681    0.9962    0.5932 S.o2      1 <0>         2.6801
     21 O1          1.4837    1.9154    0.2149 O.2       1 <0>        -0.9107
     22 O2         -0.3663    0.3948   -0.3871 O.2       1 <0>        -0.9053
     23 C16         1.1524   -0.2723    1.6947 C.3       1 <0>        -0.8238
     24 H1         -5.9844   -2.4750    6.0318 H         1 <0>         0.0880
     25 H2         -7.1002   -2.2836    7.4054 H         1 <0>         0.0777
     26 H3         -6.6647   -0.8741    6.4094 H         1 <0>         0.0881
     27 H4         -5.2128   -1.7768    8.6574 H         1 <0>         0.2403
     28 H5         -3.7879   -1.4560    9.8631 H         1 <0>         0.1223
     29 H6         -1.8304   -0.9486   11.2295 H         1 <0>         0.1318
     30 H7          0.1469    0.1238   10.2428 H         1 <0>         0.1343
     31 H8          0.2027    0.7067    7.8759 H         1 <0>         0.1506
     32 H9         -4.8097   -0.4172    3.6198 H         1 <0>         0.1542
     33 H10        -4.7657    0.1644    1.2315 H         1 <0>         0.1390
     34 H11        -2.7832    1.2463    0.2589 H         1 <0>         0.1559
     35 H12        -0.8504    1.1570    4.0714 H         1 <0>         0.1588
     36 H13        -0.3860    2.8130    1.7155 H         1 <0>         0.2544
     37 H14         1.6373    0.2078    2.5447 H         1 <0>         0.1365
     38 H15         0.3483   -0.9161    2.0511 H         1 <0>         0.1415
     39 H16         1.8827   -0.8707    1.1502 H         1 <0>         0.1396
@<TRIPOS>BOND
     1    1    2 1
     2    1   24 1
     3    1   25 1
     4    1   26 1
     5    2    3 1
     6    2   27 1
     7    3   12 ar
     8    3    4 ar
     9    4    9 ar
    10    4    5 ar
    11    5    6 ar
    12    5   28 1
    13    6    7 ar
    14    6   29 1
    15    7    8 ar
    16    7   30 1
    17    8    9 ar
    18    8   31 1
    19    9   10 ar
    20   10   11 ar
    21   11   12 ar
    22   11   13 1
    23   13   18 ar
    24   13   14 ar
    25   14   15 ar
    26   14   32 1
    27   15   16 ar
    28   15   33 1
    29   16   17 ar
    30   16   34 1
    31   17   18 ar
    32   17   19 1
    33   18   35 1
    34   19   20 1
    35   19   36 1
    36   20   21 2
    37   20   22 2
    38   20   23 1
    39   23   37 1
    40   23   38 1
    41   23   39 1
@<TRIPOS>MOLECULE
ZINC04257400
   43    46     0     0     0
SMALL
USER_CHARGES

@<TRIPOS>ATOM
      1 C1          1.1524   -0.2724    1.6945 C.3       1 <0>        -0.8246
      2 S1          0.4681    0.9963    0.5932 S.o2      1 <0>         2.6797
      3 O1          1.4836    1.9154    0.2149 O.2       1 <0>        -0.9068
      4 O2         -0.3665    0.3949   -0.3871 O.2       1 <0>        -0.9021
      5 N1         -0.5636    1.8746    1.5452 N.pl3     1 <0>        -0.8266
      6 C2         -1.6898    1.2645    2.1026 C.ar      1 <0>         0.0362
      7 C3         -2.7962    0.9883    1.3076 C.ar      1 <0>        -0.1064
      8 C4         -3.9097    0.3796    1.8542 C.ar      1 <0>        -0.1184
      9 C5         -3.9344    0.0526    3.1955 C.ar      1 <0>        -0.1182
     10 C6         -2.8319    0.3309    4.0016 C.ar      1 <0>        -0.0282
     11 C7         -1.7068    0.9391    3.4506 C.ar      1 <0>        -0.1300
     12 C8         -2.8568   -0.0203    5.4428 C.ar      1 <0>        -0.0574
     13 C9         -1.7432    0.2625    6.2477 C.ar      1 <0>        -0.0908
     14 C10        -1.7410   -0.0491    7.5718 C.ar      1 <0>        -0.1124
     15 C11        -2.8634   -0.6621    8.1478 C.ar      1 <0>         0.0865
     16 C12        -3.9926   -0.9519    7.3423 C.ar      1 <0>        -0.1937
     17 C13        -3.9814   -0.6199    5.9850 C.ar      1 <0>        -0.0781
     18 C14        -5.1105   -1.5710    7.9545 C.ar      1 <0>         0.2322
     19 N2         -5.0422   -1.8472    9.2500 N.ar      1 <0>        -0.3064
     20 C15        -3.9651   -1.5575    9.9621 C.ar      1 <0>         0.0701
     21 N3         -2.9020   -0.9850    9.4489 N.ar      1 <0>        -0.2508
     22 N4         -6.2380   -1.8782    7.2236 N.pl3     1 <0>        -0.3041
     23 C16        -7.3825   -2.5182    7.8767 C.3       1 <0>        -0.0114
     24 H1         -7.3325   -2.5739    8.9642 H         1 <0>         0.1719
     25 C17        -8.0595   -3.6760    7.1404 C.3       1 <0>        -0.2333
     26 C18        -8.7604   -2.3189    7.2422 C.3       1 <0>        -0.2335
     27 H2          1.6374    0.2076    2.5446 H         1 <0>         0.1340
     28 H3          0.3484   -0.9163    2.0509 H         1 <0>         0.1402
     29 H4          1.8827   -0.8708    1.1499 H         1 <0>         0.1426
     30 H5         -0.3859    2.8128    1.7158 H         1 <0>         0.2556
     31 H6         -2.7838    1.2465    0.2589 H         1 <0>         0.1587
     32 H7         -4.7651    0.1630    1.2314 H         1 <0>         0.1391
     33 H8         -4.8084   -0.4187    3.6202 H         1 <0>         0.1302
     34 H9         -0.8503    1.1571    4.0712 H         1 <0>         0.1378
     35 H10        -0.8759    0.7344    5.8102 H         1 <0>         0.1352
     36 H11        -0.8764    0.1756    8.1788 H         1 <0>         0.1544
     37 H12        -4.8392   -0.8327    5.3642 H         1 <0>         0.1278
     38 H13        -3.9610   -1.8036   11.0137 H         1 <0>         0.1936
     39 H14        -6.2736   -1.6706    6.2767 H         1 <0>         0.2396
     40 H15        -7.6534   -3.9614    6.1701 H         1 <0>         0.1132
     41 H16        -8.4553   -4.4932    7.7435 H         1 <0>         0.1217
     42 H17        -9.6169   -2.2439    7.9121 H         1 <0>         0.1221
     43 H18        -8.8153   -1.7116    6.3387 H         1 <0>         0.1107
@<TRIPOS>BOND
     1    1    2 1
     2    1   27 1
     3    1   28 1
     4    1   29 1
     5    2    3 2
     6    2    4 2
     7    2    5 1
     8    5    6 1
     9    5   30 1
    10    6   11 ar
    11    6    7 ar
    12    7    8 ar
    13    7   31 1
    14    8    9 ar
    15    8   32 1
    16    9   10 ar
    17    9   33 1
    18   10   11 ar
    19   10   12 1
    20   11   34 1
    21   12   17 ar
    22   12   13 ar
    23   13   14 ar
    24   13   35 1
    25   14   15 ar
    26   14   36 1
    27   15   21 ar
    28   15   16 ar
    29   16   17 ar
    30   16   18 ar
    31   17   37 1
    32   18   19 ar
    33   18   22 1
    34   19   20 ar
    35   20   21 ar
    36   20   38 1
    37   22   23 1
    38   22   39 1
    39   23   24 1
    40   23   26 1
    41   23   25 1
    42   25   26 1
    43   25   40 1
    44   25   41 1
    45   26   42 1
    46   26   43 1
@<TRIPOS>MOLECULE
ZINC04257438
   39    41     0     0     0
SMALL
USER_CHARGES

@<TRIPOS>ATOM
      1 C1         -7.3843   -2.5144    7.8776 C.3       1 <0>        -0.0506
      2 N1         -6.2397   -1.8745    7.2245 N.pl3     1 <0>        -0.3379
      3 C2         -5.1117   -1.5685    7.9551 C.ar      1 <0>         0.2264
      4 C3         -3.9934   -0.9494    7.3429 C.ar      1 <0>        -0.1937
      5 C4         -3.9819   -0.6183    5.9853 C.ar      1 <0>        -0.0779
      6 C5         -2.8570   -0.0193    5.4430 C.ar      1 <0>        -0.0581
      7 C6         -1.7433    0.2630    6.2479 C.ar      1 <0>        -0.0913
      8 C7         -1.7415   -0.0481    7.5721 C.ar      1 <0>        -0.1124
      9 C8         -2.8644   -0.6601    8.1482 C.ar      1 <0>         0.0857
     10 N2         -2.9029   -0.9834    9.4495 N.ar      1 <0>        -0.2515
     11 C9         -3.9659   -1.5556    9.9625 C.ar      1 <0>         0.0700
     12 N3         -5.0433   -1.8450    9.2503 N.ar      1 <0>        -0.3057
     13 C10        -2.8320    0.3318    4.0018 C.ar      1 <0>        -0.0278
     14 C11        -3.9349    0.0538    3.1955 C.ar      1 <0>        -0.1184
     15 C12        -3.9102    0.3806    1.8546 C.ar      1 <0>        -0.1184
     16 C13        -2.7959    0.9885    1.3076 C.ar      1 <0>        -0.1066
     17 C14        -1.6899    1.2646    2.1025 C.ar      1 <0>         0.0361
     18 C15        -1.7070    0.9393    3.4509 C.ar      1 <0>        -0.1302
     19 N4         -0.5637    1.8747    1.5451 N.pl3     1 <0>        -0.8265
     20 S1          0.4681    0.9962    0.5932 S.o2      1 <0>         2.6796
     21 O1          1.4837    1.9154    0.2149 O.2       1 <0>        -0.9069
     22 O2         -0.3664    0.3948   -0.3871 O.2       1 <0>        -0.9021
     23 C16         1.1524   -0.2723    1.6947 C.3       1 <0>        -0.8245
     24 H1         -8.1757   -2.6774    7.1460 H         1 <0>         0.0770
     25 H2         -7.0747   -3.4716    8.2972 H         1 <0>         0.0898
     26 H3         -7.7541   -1.8705    8.6755 H         1 <0>         0.0899
     27 H4         -6.2756   -1.6661    6.2778 H         1 <0>         0.2379
     28 H5         -4.8396   -0.8311    5.3646 H         1 <0>         0.1276
     29 H6         -0.8756    0.7342    5.8103 H         1 <0>         0.1349
     30 H7         -0.8768    0.1762    8.1791 H         1 <0>         0.1541
     31 H8         -3.9616   -1.8022   11.0140 H         1 <0>         0.1934
     32 H9         -4.8091   -0.4171    3.6203 H         1 <0>         0.1302
     33 H10        -4.7658    0.1646    1.2320 H         1 <0>         0.1389
     34 H11        -2.7833    1.2463    0.2589 H         1 <0>         0.1586
     35 H12        -0.8503    1.1570    4.0714 H         1 <0>         0.1379
     36 H13        -0.3860    2.8129    1.7156 H         1 <0>         0.2556
     37 H14         1.6373    0.2078    2.5447 H         1 <0>         0.1340
     38 H15         0.3483   -0.9161    2.0511 H         1 <0>         0.1403
     39 H16         1.8827   -0.8707    1.1501 H         1 <0>         0.1426
@<TRIPOS>BOND
     1    1    2 1
     2    1   24 1
     3    1   25 1
     4    1   26 1
     5    2    3 1
     6    2   27 1
     7    3   12 ar
     8    3    4 ar
     9    4    9 ar
    10    4    5 ar
    11    5    6 ar
    12    5   28 1
    13    6    7 ar
    14    6   13 1
    15    7    8 ar
    16    7   29 1
    17    8    9 ar
    18    8   30 1
    19    9   10 ar
    20   10   11 ar
    21   11   12 ar
    22   11   31 1
    23   13   18 ar
    24   13   14 ar
    25   14   15 ar
    26   14   32 1
    27   15   16 ar
    28   15   33 1
    29   16   17 ar
    30   16   34 1
    31   17   18 ar
    32   17   19 1
    33   18   35 1
    34   19   20 1
    35   19   36 1
    36   20   21 2
    37   20   22 2
    38   20   23 1
    39   23   37 1
    40   23   38 1
    41   23   39 1
@<TRIPOS>MOLECULE
ZINC04262754
   39    41     0     0     0
SMALL
USER_CHARGES

@<TRIPOS>ATOM
      1 C1          3.6666    2.2037    0.4176 C.3       1 <0>        -0.1753
      2 C2          2.3689    1.4376    0.4262 C.ar      1 <0>        -0.0524
      3 C3          2.3817    0.0584    0.5318 C.ar      1 <0>        -0.1412
      4 C4          1.1935   -0.6490    0.5396 C.ar      1 <0>        -0.0961
      5 C5         -0.0109    0.0198    0.4424 C.ar      1 <0>        -0.1175
      6 C6         -0.0277    1.4055    0.3366 C.ar      1 <0>         0.0766
      7 C7          1.1689    2.1131    0.3291 C.ar      1 <0>        -0.1383
      8 N1         -1.2421    2.0841    0.2325 N.pl3     1 <0>        -0.2148
      9 N2         -1.2559    3.3703    0.1344 N.2       1 <0>         0.0700
     10 C8         -2.3923    4.0027   -0.0642 C.2       1 <0>        -0.0858
     11 C9         -2.3955    5.4181   -0.2820 C.1       1 <0>        -0.0538
     12 N3         -2.3980    6.5408   -0.4548 N.1       1 <0>        -0.0118
     13 C10        -3.6610    3.2552   -0.0625 C.2       1 <0>         0.1232
     14 N4         -4.0740    2.6662   -1.2282 N.am      1 <0>        -0.3101
     15 H1         -3.5171    2.7542   -2.0541 H         1 <0>         0.2589
     16 C11        -5.2314    1.9659   -1.2685 C.2       1 <0>         0.3402
     17 O1         -5.6114    1.4328   -2.2947 O.2       1 <0>        -0.3393
     18 C12        -6.0155    1.8784   -0.0282 C.ar      1 <0>        -0.1800
     19 C13        -7.2232    1.1851    0.0303 C.ar      1 <0>        -0.0554
     20 C14        -7.9179    1.1352    1.2192 C.ar      1 <0>        -0.1436
     21 C15        -7.4246    1.7677    2.3533 C.ar      1 <0>        -0.0943
     22 C16        -6.2433    2.4531    2.3183 C.ar      1 <0>        -0.1095
     23 C17        -5.5146    2.5221    1.1267 C.ar      1 <0>         0.0415
     24 N5         -4.3460    3.1884    1.0533 N.2       1 <0>        -0.1813
     25 C18        -1.3052   -0.7520    0.4506 C.3       1 <0>        -0.1760
     26 H2          4.0188    2.3104   -0.6084 H         1 <0>         0.0901
     27 H3          3.5087    3.1908    0.8520 H         1 <0>         0.0873
     28 H4          4.4111    1.6640    1.0030 H         1 <0>         0.0845
     29 H5          3.3220   -0.4673    0.6079 H         1 <0>         0.1354
     30 H6          1.2073   -1.7258    0.6215 H         1 <0>         0.1375
     31 H7          1.1597    3.1899    0.2471 H         1 <0>         0.1575
     32 H8         -2.0762    1.5888    0.2338 H         1 <0>         0.2311
     33 H9         -7.6112    0.6917   -0.8485 H         1 <0>         0.1569
     34 H10        -8.8542    0.5993    1.2699 H         1 <0>         0.1389
     35 H11        -7.9832    1.7172    3.2761 H         1 <0>         0.1378
     36 H12        -5.8730    2.9396    3.2086 H         1 <0>         0.1534
     37 H13        -1.5774   -1.0157   -0.5714 H         1 <0>         0.0902
     38 H14        -1.1827   -1.6607    1.0400 H         1 <0>         0.0936
     39 H15        -2.0917   -0.1378    0.8890 H         1 <0>         0.0719
@<TRIPOS>BOND
     1    1    2 1
     2    1   26 1
     3    1   27 1
     4    1   28 1
     5    2    7 ar
     6    2    3 ar
     7    3    4 ar
     8    3   29 1
     9    4    5 ar
    10    4   30 1
    11    5    6 ar
    12    5   25 1
    13    6    7 ar
    14    6    8 1
    15    7   31 1
    16    8    9 1
    17    8   32 1
    18    9   10 2
    19   10   11 1
    20   10   13 1
    21   11   12 3
    22   13   24 2
    23   13   14 1
    24   14   15 1
    25   14   16 am
    26   16   17 2
    27   16   18 1
    28   18   23 ar
    29   18   19 ar
    30   19   20 ar
    31   19   33 1
    32   20   21 ar
    33   20   34 1
    34   21   22 ar
    35   21   35 1
    36   22   23 ar
    37   22   36 1
    38   23   24 1
    39   25   37 1
    40   25   38 1
    41   25   39 1
@<TRIPOS>MOLECULE
ZINC04262754
   39    41     0     0     0
SMALL
USER_CHARGES

@<TRIPOS>ATOM
      1 C1          3.6666    2.2011    0.4190 C.3       1 <0>        -0.1751
      2 C2          2.3687    1.4354    0.4275 C.ar      1 <0>        -0.0532
      3 C3          2.3811    0.0562    0.5333 C.ar      1 <0>        -0.1398
      4 C4          1.1927   -0.6509    0.5410 C.ar      1 <0>        -0.0968
      5 C5         -0.0115    0.0182    0.4435 C.ar      1 <0>        -0.1142
      6 C6         -0.0279    1.4039    0.3376 C.ar      1 <0>         0.0749
      7 C7          1.1689    2.1112    0.3302 C.ar      1 <0>        -0.1374
      8 N1         -1.2421    2.0828    0.2332 N.pl3     1 <0>        -0.2078
      9 N2         -1.2555    3.3690    0.1349 N.2       1 <0>         0.0764
     10 C8         -2.3917    4.0017   -0.0639 C.2       1 <0>        -0.1028
     11 C9         -2.3945    5.4171   -0.2819 C.1       1 <0>        -0.0559
     12 N3         -2.3967    6.5398   -0.4548 N.1       1 <0>        -0.0092
     13 C10        -3.6606    3.2546   -0.0623 C.2       1 <0>         0.1535
     14 N4         -4.0736    2.6655   -1.2280 N.2       1 <0>        -0.2720
     15 H1         -3.9896    3.6390    1.8718 H         1 <0>         0.2542
     16 C11        -5.2312    1.9655   -1.2684 C.2       1 <0>         0.3075
     17 O1         -5.6112    1.4324   -2.2946 O.2       1 <0>        -0.2978
     18 C12        -6.0098    1.8687   -0.0253 C.ar      1 <0>        -0.1953
     19 C13        -7.2145    1.1704    0.0347 C.ar      1 <0>        -0.0373
     20 C14        -7.9065    1.1159    1.2249 C.ar      1 <0>        -0.1592
     21 C15        -7.4134    1.7488    2.3589 C.ar      1 <0>        -0.0722
     22 C16        -6.2350    2.4391    2.3225 C.ar      1 <0>        -0.1789
     23 C17        -5.5091    2.5128    1.1295 C.ar      1 <0>         0.0573
     24 N5         -4.3432    3.1836    1.0547 N.pl3     1 <0>        -0.2045
     25 C18        -1.3060   -0.7532    0.4516 C.3       1 <0>        -0.1748
     26 H2          4.0190    2.3076   -0.6069 H         1 <0>         0.0921
     27 H3          3.5089    3.1883    0.8533 H         1 <0>         0.0858
     28 H4          4.4109    1.6613    1.0046 H         1 <0>         0.0837
     29 H5          3.3213   -0.4698    0.6096 H         1 <0>         0.1355
     30 H6          1.2062   -1.7277    0.6230 H         1 <0>         0.1379
     31 H7          1.1600    3.1880    0.2480 H         1 <0>         0.1569
     32 H8         -2.0763    1.5878    0.2344 H         1 <0>         0.2342
     33 H9         -7.6023    0.6766   -0.8441 H         1 <0>         0.1642
     34 H10        -8.8405    0.5761    1.2768 H         1 <0>         0.1405
     35 H11        -7.9699    1.6946    3.2828 H         1 <0>         0.1378
     36 H12        -5.8649    2.9258    3.2127 H         1 <0>         0.1355
     37 H13        -1.5781   -1.0170   -0.5704 H         1 <0>         0.0992
     38 H14        -1.1838   -1.6619    1.0412 H         1 <0>         0.0911
     39 H15        -2.0924   -0.1388    0.8898 H         1 <0>         0.0662
@<TRIPOS>BOND
     1    1    2 1
     2    1   26 1
     3    1   27 1
     4    1   28 1
     5    2    7 ar
     6    2    3 ar
     7    3    4 ar
     8    3   29 1
     9    4    5 ar
    10    4   30 1
    11    5    6 ar
    12    5   25 1
    13    6    7 ar
    14    6    8 1
    15    7   31 1
    16    8    9 1
    17    8   32 1
    18    9   10 2
    19   10   11 1
    20   10   13 1
    21   11   12 3
    22   13   24 1
    23   13   14 2
    24   14   16 1
    25   15   24 1
    26   16   17 2
    27   16   18 1
    28   18   19 ar
    29   18   23 ar
    30   19   20 ar
    31   19   33 1
    32   20   21 ar
    33   20   34 1
    34   21   22 ar
    35   21   35 1
    36   22   23 ar
    37   22   36 1
    38   23   24 1
    39   25   37 1
    40   25   38 1
    41   25   39 1
@<TRIPOS>MOLECULE
ZINC04262754
   39    41     0     0     0
SMALL
USER_CHARGES

@<TRIPOS>ATOM
      1 C1          3.6667    2.2008    0.4175 C.3       1 <0>        -0.1746
      2 C2          2.3688    1.4351    0.4259 C.ar      1 <0>        -0.0517
      3 C3          2.3812    0.0559    0.5313 C.ar      1 <0>        -0.1490
      4 C4          1.1928   -0.6512    0.5390 C.ar      1 <0>        -0.0960
      5 C5         -0.0114    0.0180    0.4419 C.ar      1 <0>        -0.1250
      6 C6         -0.0278    1.4037    0.3364 C.ar      1 <0>         0.0911
      7 C7          1.1690    2.1110    0.3290 C.ar      1 <0>        -0.1423
      8 N1         -1.2420    2.0827    0.2324 N.pl3     1 <0>        -0.2160
      9 N2         -1.2555    3.3689    0.1346 N.2       1 <0>         0.0564
     10 C8         -2.3917    4.0017   -0.0639 C.2       1 <0>        -0.0339
     11 C9         -2.3945    5.4171   -0.2814 C.1       1 <0>        -0.0432
     12 N3         -2.3967    6.5398   -0.4540 N.1       1 <0>        -0.0277
     13 C10        -3.6606    3.2545   -0.0623 C.ar      1 <0>         0.1095
     14 N4         -4.0735    2.6654   -1.2279 N.ar      1 <0>        -0.2690
     15 H1         -6.4773    0.9621   -2.1249 H         1 <0>         0.2732
     16 C11        -5.2309    1.9650   -1.2682 C.ar      1 <0>         0.2305
     17 O1         -5.6082    1.4273   -2.2930 O.3       1 <0>        -0.1572
     18 C12        -6.0101    1.8693   -0.0255 C.ar      1 <0>        -0.2469
     19 C13        -7.2152    1.1715    0.0343 C.ar      1 <0>        -0.1116
     20 C14        -7.9079    1.1183    1.2242 C.ar      1 <0>        -0.1238
     21 C15        -7.4149    1.7512    2.3582 C.ar      1 <0>        -0.0981
     22 C16        -6.2357    2.4402    2.3221 C.ar      1 <0>        -0.1007
     23 C17        -5.5095    2.5134    1.1293 C.ar      1 <0>         0.0822
     24 N5         -4.3433    3.1838    1.0547 N.ar      1 <0>        -0.2174
     25 C18        -1.3059   -0.7534    0.4500 C.3       1 <0>        -0.1729
     26 H2          4.0189    2.3076   -0.6085 H         1 <0>         0.0891
     27 H3          3.5091    3.1879    0.8520 H         1 <0>         0.0863
     28 H4          4.4111    1.6608    1.0027 H         1 <0>         0.0820
     29 H5          3.3213   -0.4701    0.6073 H         1 <0>         0.1322
     30 H6          1.2063   -1.7280    0.6207 H         1 <0>         0.1335
     31 H7          1.1601    3.1878    0.2472 H         1 <0>         0.1582
     32 H8         -2.0763    1.5876    0.2337 H         1 <0>         0.2299
     33 H9         -7.6028    0.6775   -0.8443 H         1 <0>         0.1187
     34 H10        -8.8423    0.5792    1.2759 H         1 <0>         0.1378
     35 H11        -7.9718    1.6978    3.2819 H         1 <0>         0.1408
     36 H12        -5.8654    2.9267    3.2125 H         1 <0>         0.1590
     37 H13        -1.5782   -1.0169   -0.5720 H         1 <0>         0.0882
     38 H14        -1.1837   -1.6623    1.0393 H         1 <0>         0.0882
     39 H15        -2.0923   -0.1391    0.8886 H         1 <0>         0.0702
@<TRIPOS>BOND
     1    1    2 1
     2    1   26 1
     3    1   27 1
     4    1   28 1
     5    2    7 ar
     6    2    3 ar
     7    3    4 ar
     8    3   29 1
     9    4    5 ar
    10    4   30 1
    11    5    6 ar
    12    5   25 1
    13    6    7 ar
    14    6    8 1
    15    7   31 1
    16    8    9 1
    17    8   32 1
    18    9   10 2
    19   10   11 1
    20   10   13 1
    21   11   12 3
    22   13   24 ar
    23   13   14 ar
    24   14   16 ar
    25   15   17 1
    26   16   17 1
    27   16   18 ar
    28   18   19 ar
    29   18   23 ar
    30   19   20 ar
    31   19   33 1
    32   20   21 ar
    33   20   34 1
    34   21   22 ar
    35   21   35 1
    36   22   23 ar
    37   22   36 1
    38   23   24 ar
    39   25   37 1
    40   25   38 1
    41   25   39 1
@<TRIPOS>MOLECULE
ZINC04263628
   44    46     0     0     0
SMALL
USER_CHARGES

@<TRIPOS>ATOM
      1 C1         -6.9423    4.7162   -0.4676 C.3       1 <0>        -0.2113
      2 C2         -5.7692    3.7370   -0.5445 C.3       1 <0>        -0.0168
      3 O1         -4.5967    4.3555   -0.0110 O.3       1 <0>        -0.2065
      4 C3         -3.4564    3.6150   -0.0050 C.ar      1 <0>         0.0755
      5 C4         -3.4681    2.3199   -0.5028 C.ar      1 <0>        -0.1588
      6 C5         -2.3107    1.5671   -0.4962 C.ar      1 <0>        -0.1120
      7 C6         -1.1348    2.1064    0.0084 C.ar      1 <0>         0.0974
      8 C7         -1.1251    3.4004    0.5112 C.ar      1 <0>        -0.1210
      9 C8         -2.2822    4.1543    0.4991 C.ar      1 <0>        -0.0913
     10 N1          0.1264    3.9738    1.0552 N.pl3     1 <0>         0.5589
     11 O2          0.1154    5.0739    1.5780 O.2       1 <0>        -0.3361
     12 O3          1.1672    3.3456    0.9801 O.3       1 <0>        -0.3874
     13 N2          0.0400    1.3430    0.0154 N.am      1 <0>        -0.3217
     14 C9         -0.0310   -0.0028    0.0306 C.2       1 <0>         0.3102
     15 O4         -1.1066   -0.5522    0.1418 O.2       1 <0>        -0.3501
     16 C10         1.2261   -0.8251   -0.0906 C.3       1 <0>        -0.1804
     17 C11         0.8691   -2.3122   -0.0458 C.3       1 <0>        -0.2195
     18 H1          0.2903   -2.5237    0.8533 H         1 <0>         0.1822
     19 C12         2.1302   -3.1368   -0.0431 C.2       1 <0>         0.3072
     20 O5          2.5451   -3.5532    1.0179 O.2       1 <0>        -0.3384
     21 N3          2.8099   -3.4296   -1.1467 N.am      1 <0>        -0.3021
     22 C13         2.4368   -3.1396   -2.4556 C.ar      1 <0>         0.0659
     23 C14         3.3871   -3.2149   -3.4682 C.ar      1 <0>        -0.1606
     24 C15         3.0405   -2.9257   -4.7730 C.ar      1 <0>        -0.0958
     25 C16         1.7431   -2.5668   -5.0903 C.ar      1 <0>        -0.1443
     26 C17         0.7832   -2.5052   -4.0968 C.ar      1 <0>        -0.0733
     27 C18         1.1250   -2.7984   -2.7871 C.ar      1 <0>        -0.2519
     28 S1         -0.1028   -2.7534   -1.5189 S.3       1 <0>         0.2121
     29 H2         -7.1180    4.9918    0.5722 H         1 <0>         0.0919
     30 H3         -6.7080    5.6100   -1.0458 H         1 <0>         0.0907
     31 H4         -7.8367    4.2443   -0.8746 H         1 <0>         0.0904
     32 H5         -5.5935    3.4614   -1.5844 H         1 <0>         0.0748
     33 H6         -6.0036    2.8432    0.0337 H         1 <0>         0.0777
     34 H7         -4.3827    1.9006   -0.8952 H         1 <0>         0.1512
     35 H8         -2.3201    0.5588   -0.8830 H         1 <0>         0.1910
     36 H9         -2.2739    5.1623    0.8868 H         1 <0>         0.1787
     37 H10         0.9044    1.7830    0.0052 H         1 <0>         0.2712
     38 H11         1.7191   -0.5981   -1.0359 H         1 <0>         0.1183
     39 H12         1.8967   -0.5874    0.7352 H         1 <0>         0.1286
     40 H13         3.6533   -3.8938   -1.0277 H         1 <0>         0.2466
     41 H14         4.4016   -3.5007   -3.2326 H         1 <0>         0.1369
     42 H15         3.7874   -2.9806   -5.5512 H         1 <0>         0.1370
     43 H16         1.4801   -2.3354   -6.1119 H         1 <0>         0.1382
     44 H17        -0.2317   -2.2290   -4.3419 H         1 <0>         0.1466
@<TRIPOS>BOND
     1    1    2 1
     2    1   29 1
     3    1   30 1
     4    1   31 1
     5    2    3 1
     6    2   32 1
     7    2   33 1
     8    3    4 1
     9    4    9 ar
    10    4    5 ar
    11    5    6 ar
    12    5   34 1
    13    6    7 ar
    14    6   35 1
    15    7    8 ar
    16    7   13 1
    17    8    9 ar
    18    8   10 1
    19    9   36 1
    20   10   11 2
    21   10   12 1
    22   13   14 am
    23   13   37 1
    24   14   15 2
    25   14   16 1
    26   16   17 1
    27   16   38 1
    28   16   39 1
    29   17   18 1
    30   17   28 1
    31   17   19 1
    32   19   20 2
    33   19   21 am
    34   21   22 1
    35   21   40 1
    36   22   27 ar
    37   22   23 ar
    38   23   24 ar
    39   23   41 1
    40   24   25 ar
    41   24   42 1
    42   25   26 ar
    43   25   43 1
    44   26   27 ar
    45   26   44 1
    46   27   28 1
@<TRIPOS>MOLECULE
ZINC04263883
   40    42     0     0     0
SMALL
USER_CHARGES

@<TRIPOS>ATOM
      1 C1         10.8534   10.2042   -0.2504 C.3       1 <0>        -0.2082
      2 C2         10.0975    9.0889    0.4746 C.3       1 <0>         0.0233
      3 C3         10.6145    8.9719    1.9099 C.3       1 <0>        -0.2427
      4 O1          8.7017    9.3944    0.4945 O.3       1 <0>        -0.2041
      5 C4          7.8437    8.3490    0.6074 C.ar      1 <0>         0.1331
      6 C5          8.3376    7.0662    0.8139 C.ar      1 <0>        -0.2386
      7 C6          7.4704    6.0029    0.9295 C.ar      1 <0>        -0.0200
      8 C7          6.0920    6.2148    0.8388 C.ar      1 <0>        -0.1815
      9 C8          5.5998    7.5053    0.6259 C.ar      1 <0>        -0.0649
     10 C9          6.4735    8.5640    0.5167 C.ar      1 <0>        -0.1705
     11 C10         5.1592    5.0781    0.9616 C.2       1 <0>         0.3569
     12 O2          5.5894    3.9552    1.1418 O.2       1 <0>        -0.3551
     13 N1          3.8302    5.2845    0.8739 N.am      1 <0>        -0.3259
     14 C11         2.9453    4.2306    1.0939 C.ar      1 <0>         0.0851
     15 C12         3.2608    3.2444    2.0211 C.ar      1 <0>        -0.1194
     16 C13         2.3910    2.1940    2.2486 C.ar      1 <0>        -0.0390
     17 C14         1.1953    2.1233    1.5471 C.ar      1 <0>        -0.1580
     18 C15         0.8717    3.1227    0.6051 C.ar      1 <0>        -0.1161
     19 C16         1.7469    4.1703    0.3830 C.ar      1 <0>        -0.0982
     20 C17        -0.4470    2.7451    0.0528 C.2       1 <0>         0.3596
     21 O3         -1.0649    3.3608   -0.7922 O.2       1 <0>        -0.3020
     22 N2         -0.8442    1.6015    0.6395 N.am      1 <0>        -0.3559
     23 C18         0.0647    1.1753    1.5346 C.2       1 <0>         0.3599
     24 O4         -0.0275    0.1736    2.2158 O.2       1 <0>        -0.3011
     25 H1         10.6955   11.1484    0.2707 H         1 <0>         0.0908
     26 H2         11.9181    9.9711   -0.2656 H         1 <0>         0.0891
     27 H3         10.4851   10.2875   -1.2729 H         1 <0>         0.0878
     28 H4         10.2554    8.1447   -0.0465 H         1 <0>         0.0891
     29 H5         10.4566    9.9161    2.4310 H         1 <0>         0.0934
     30 H6         10.0760    8.1773    2.4264 H         1 <0>         0.0854
     31 H7         11.6792    8.7389    1.8947 H         1 <0>         0.0861
     32 H8          9.4030    6.9032    0.8835 H         1 <0>         0.1474
     33 H9          7.8550    5.0065    1.0903 H         1 <0>         0.1583
     34 H10         4.5355    7.6726    0.5511 H         1 <0>         0.1275
     35 H11         6.0937    9.5622    0.3562 H         1 <0>         0.1496
     36 H12         3.4896    6.1666    0.6577 H         1 <0>         0.2388
     37 H13         4.1908    3.2990    2.5674 H         1 <0>         0.1724
     38 H14         2.6410    1.4306    2.9705 H         1 <0>         0.1548
     39 H15         1.5036    4.9376   -0.3370 H         1 <0>         0.1499
     40 H16        -1.6779    1.1456    0.4444 H         1 <0>         0.2633
@<TRIPOS>BOND
     1    1    2 1
     2    1   25 1
     3    1   26 1
     4    1   27 1
     5    2    3 1
     6    2    4 1
     7    2   28 1
     8    3   29 1
     9    3   30 1
    10    3   31 1
    11    4    5 1
    12    5   10 ar
    13    5    6 ar
    14    6    7 ar
    15    6   32 1
    16    7    8 ar
    17    7   33 1
    18    8    9 ar
    19    8   11 1
    20    9   10 ar
    21    9   34 1
    22   10   35 1
    23   11   12 2
    24   11   13 am
    25   13   14 1
    26   13   36 1
    27   14   19 ar
    28   14   15 ar
    29   15   16 ar
    30   15   37 1
    31   16   17 ar
    32   16   38 1
    33   17   23 1
    34   17   18 ar
    35   18   19 ar
    36   18   20 1
    37   19   39 1
    38   20   21 2
    39   20   22 am
    40   22   23 am
    41   22   40 1
    42   23   24 2
@<TRIPOS>MOLECULE
ZINC04274663
   41    44     0     0     0
SMALL
USER_CHARGES

@<TRIPOS>ATOM
      1 C1         -0.3594   -6.8821   -0.0361 C.3       1 <0>        -0.0617
      2 O1         -1.1884   -5.7182   -0.0205 O.3       1 <0>        -0.2110
      3 C2         -0.5597   -4.5124   -0.0189 C.ar      1 <0>         0.1104
      4 C3          0.8303   -4.4565   -0.0322 C.ar      1 <0>        -0.2250
      5 C4          1.4796   -3.2425   -0.0313 C.ar      1 <0>        -0.0365
      6 C5          0.7391   -2.0579   -0.0169 C.ar      1 <0>        -0.0737
      7 C6         -0.6638   -2.1177   -0.0035 C.ar      1 <0>        -0.0033
      8 C7         -1.3056   -3.3469   -0.0046 C.ar      1 <0>        -0.1703
      9 N1         -1.1058   -0.8048    0.0083 N.pl3     1 <0>        -0.2056
     10 H1         -2.0580   -0.4997    0.0194 H         1 <0>         0.2626
     11 C8          0.0021   -0.0041    0.0020 C.2       1 <0>        -0.1247
     12 N2          1.0840   -0.7421   -0.0180 N.2       1 <0>        -0.1934
     13 S1         -0.0218    1.7577    0.0117 S.3       1 <0>         0.2854
     14 C9          1.7562    2.0963   -0.0035 C.3       1 <0>        -0.3056
     15 C10         1.9840    3.5860    0.0024 C.2       1 <0>         0.2830
     16 O2          1.0373    4.3442    0.0155 O.2       1 <0>        -0.2748
     17 C11         3.3522    4.1196   -0.0078 C.ar      1 <0>        -0.1544
     18 C12         4.4463    3.2459   -0.0171 C.ar      1 <0>        -0.0843
     19 C13         5.7294    3.7463   -0.0315 C.ar      1 <0>        -0.1343
     20 C14         5.9418    5.1178   -0.0267 C.ar      1 <0>         0.0782
     21 C15         4.8549    5.9964   -0.0117 C.ar      1 <0>        -0.0066
     22 C16         3.5659    5.5040   -0.0024 C.ar      1 <0>        -0.0794
     23 N3          5.0917    7.3790   -0.0058 N.am      1 <0>        -0.3125
     24 C17         6.3214    7.8334   -0.3317 C.2       1 <0>         0.2758
     25 O3          6.5582    9.0227   -0.3046 O.2       1 <0>        -0.3334
     26 C18         7.3984    6.8560   -0.7286 C.3       1 <0>        -0.0290
     27 O4          7.2038    5.6195   -0.0376 O.3       1 <0>        -0.2009
     28 H2          0.2611   -6.8742   -0.9322 H         1 <0>         0.0687
     29 H3          0.2786   -6.8856    0.8476 H         1 <0>         0.0688
     30 H4         -0.9857   -7.7743   -0.0357 H         1 <0>         0.1088
     31 H5          1.4039   -5.3715   -0.0437 H         1 <0>         0.1391
     32 H6          2.5589   -3.2060   -0.0420 H         1 <0>         0.1418
     33 H7         -2.3845   -3.3945    0.0053 H         1 <0>         0.1428
     34 H8          2.1796    1.6912    0.8068 H         1 <0>         0.1312
     35 H9          2.2007    1.6643   -0.9001 H         1 <0>         0.1429
     36 H10         4.2839    2.1782   -0.0170 H         1 <0>         0.1479
     37 H11         6.5716    3.0704   -0.0427 H         1 <0>         0.1556
     38 H12         2.7258    6.1827    0.0086 H         1 <0>         0.1616
     39 H13         4.3835    7.9991    0.2284 H         1 <0>         0.2543
     40 H14         8.3743    7.2666   -0.4697 H         1 <0>         0.1551
     41 H15         7.3521    6.6820   -1.8036 H         1 <0>         0.1064
@<TRIPOS>BOND
     1    1    2 1
     2    1   28 1
     3    1   29 1
     4    1   30 1
     5    2    3 1
     6    3    8 ar
     7    3    4 ar
     8    4    5 ar
     9    4   31 1
    10    5    6 ar
    11    5   32 1
    12    6   12 1
    13    6    7 ar
    14    7    8 ar
    15    7    9 1
    16    8   33 1
    17    9   10 1
    18    9   11 1
    19   11   12 2
    20   11   13 1
    21   13   14 1
    22   14   15 1
    23   14   34 1
    24   14   35 1
    25   15   16 2
    26   15   17 1
    27   17   22 ar
    28   17   18 ar
    29   18   19 ar
    30   18   36 1
    31   19   20 ar
    32   19   37 1
    33   20   27 1
    34   20   21 ar
    35   21   22 ar
    36   21   23 1
    37   22   38 1
    38   23   24 am
    39   23   39 1
    40   24   25 2
    41   24   26 1
    42   26   27 1
    43   26   40 1
    44   26   41 1
@<TRIPOS>MOLECULE
ZINC04277178
   39    41     0     0     0
SMALL
USER_CHARGES

@<TRIPOS>ATOM
      1 C1         -4.6780   -4.0673    1.1717 C.3       1 <0>        -0.0634
      2 O1         -4.7252   -2.8359    0.4481 O.3       1 <0>        -0.2090
      3 C2         -3.5625   -2.1394    0.3385 C.ar      1 <0>         0.0898
      4 C3         -3.5378   -0.9358   -0.3510 C.ar      1 <0>        -0.1400
      5 C4         -2.3576   -0.2279   -0.4627 C.ar      1 <0>        -0.0756
      6 C5         -1.1951   -0.7210    0.1153 C.ar      1 <0>         0.0201
      7 C6         -1.2196   -1.9285    0.8008 C.ar      1 <0>        -0.1162
      8 C7         -2.4019   -2.6325    0.9165 C.ar      1 <0>        -0.2061
      9 N1          0.0021   -0.0041    0.0020 N.pl3     1 <0>        -0.2621
     10 C8         -0.0193    1.3660   -0.0208 C.2       1 <0>         0.2298
     11 N2         -1.1603    1.9975    0.1780 N.2       1 <0>        -0.2009
     12 N3         -1.2588    3.2778    0.1772 N.2       1 <0>         0.0230
     13 C9         -0.2001    4.0470   -0.0389 C.2       1 <0>        -0.1550
     14 C10         1.1003    3.4014   -0.2732 C.2       1 <0>         0.3018
     15 O2          2.1054    4.0593   -0.4766 O.2       1 <0>        -0.3418
     16 N4          1.1383    2.0478   -0.2539 N.am      1 <0>        -0.2001
     17 N5          2.3112    1.3799   -0.4640 N.3       1 <0>        -0.2379
     18 C11        -0.3236    5.5089   -0.0446 C.2       1 <0>        -0.1028
     19 C12        -1.5251    6.0857    0.1723 C.2       1 <0>        -0.0534
     20 C13        -1.6484    7.5448    0.1666 C.2       1 <0>        -0.2354
     21 C14        -2.7758    8.3271    0.3595 C.2       1 <0>        -0.1625
     22 C15        -2.6371    9.6946    0.3121 C.2       1 <0>        -0.1735
     23 C16        -1.4129   10.2312    0.0681 C.2       1 <0>        -0.3117
     24 S1         -0.3869    8.7801   -0.0984 S.3       1 <0>         0.3394
     25 H1         -5.6695   -4.5200    1.1835 H         1 <0>         0.1099
     26 H2         -3.9745   -4.7457    0.6889 H         1 <0>         0.0669
     27 H3         -4.3540   -3.8754    2.1946 H         1 <0>         0.0685
     28 H4         -4.4419   -0.5527   -0.8007 H         1 <0>         0.1520
     29 H5         -2.3386    0.7093   -0.9992 H         1 <0>         0.1692
     30 H6         -0.3151   -2.3148    1.2470 H         1 <0>         0.1289
     31 H7         -2.4221   -3.5692    1.4537 H         1 <0>         0.1390
     32 H8          0.8466   -0.4771   -0.0603 H         1 <0>         0.2515
     33 H9          3.0714    2.0245   -0.6209 H         1 <0>         0.2120
     34 H10         2.5163    0.7590    0.3044 H         1 <0>         0.1542
     35 H11         0.5464    6.1237   -0.2222 H         1 <0>         0.1561
     36 H12        -2.3951    5.4710    0.3499 H         1 <0>         0.1626
     37 H13        -3.7385    7.8745    0.5461 H         1 <0>         0.1458
     38 H14        -3.4935   10.3353    0.4621 H         1 <0>         0.1415
     39 H15        -1.1321   11.2714   -0.0065 H         1 <0>         0.1856
@<TRIPOS>BOND
     1    1    2 1
     2    1   25 1
     3    1   26 1
     4    1   27 1
     5    2    3 1
     6    3    8 ar
     7    3    4 ar
     8    4    5 ar
     9    4   28 1
    10    5    6 ar
    11    5   29 1
    12    6    7 ar
    13    6    9 1
    14    7    8 ar
    15    7   30 1
    16    8   31 1
    17    9   10 1
    18    9   32 1
    19   10   16 1
    20   10   11 2
    21   11   12 1
    22   12   13 2
    23   13   14 1
    24   13   18 1
    25   14   15 2
    26   14   16 am
    27   16   17 1
    28   17   33 1
    29   17   34 1
    30   18   19 2
    31   18   35 1
    32   19   20 1
    33   19   36 1
    34   20   24 1
    35   20   21 2
    36   21   22 1
    37   21   37 1
    38   22   23 2
    39   22   38 1
    40   23   24 1
    41   23   39 1
@<TRIPOS>MOLECULE
ZINC04280317
   42    44     0     0     0
SMALL
USER_CHARGES

@<TRIPOS>ATOM
      1 C1          7.8721    2.2612   -4.9065 C.3       1 <0>        -0.2172
      2 C2          6.4020    2.1141   -5.3044 C.3       1 <0>         0.0131
      3 O1          5.5586    2.6197   -4.2360 O.3       1 <0>        -0.2815
      4 C3          4.2274    2.5625   -4.4293 C.2       1 <0>         0.4148
      5 O2          3.7826    2.1027   -5.4624 O.2       1 <0>        -0.4225
      6 N1          3.3881    3.0152   -3.4768 N.am      1 <0>        -0.3374
      7 C4          1.9295    2.9660   -3.6590 C.3       1 <0>         0.0086
      8 C5          1.3151    2.0240   -2.6220 C.3       1 <0>        -0.1246
      9 C6          1.8804    2.3553   -1.2467 C.2       1 <0>        -0.0498
     10 C7          3.0338    3.0448   -1.1092 C.2       1 <0>        -0.3640
     11 S1          3.2836    3.1724    0.6379 S.3       1 <0>         0.5278
     12 C8          1.8713    2.3299    1.1839 C.2       1 <0>        -0.1360
     13 C9          1.2450    1.9631    0.0007 C.2       1 <0>        -0.2398
     14 C10        -0.0144    1.2130    0.0087 C.2       1 <0>         0.3593
     15 O3          0.0021   -0.0041    0.0020 O.2       1 <0>        -0.3556
     16 N2         -1.1906    1.8709    0.0179 N.am      1 <0>        -0.4297
     17 N3          1.4666    2.0812    2.4850 N.am      1 <0>        -0.2606
     18 C11         2.2124    2.5200    3.5182 C.2       1 <0>         0.3907
     19 O4          3.2415    3.1349    3.3080 O.2       1 <0>        -0.3300
     20 C12         1.7841    2.2568    4.8952 C.2       1 <0>        -0.1297
     21 C13         2.4421    2.6428    6.0282 C.2       1 <0>        -0.1114
     22 C14         1.6804    2.1830    7.1136 C.2       1 <0>        -0.2340
     23 C15         0.6045    1.5447    6.6026 C.2       1 <0>        -0.0614
     24 O5          0.6677    1.5959    5.2656 O.3       1 <0>        -0.0548
     25 C16         3.8984    3.5787   -2.2113 C.3       1 <0>         0.0806
     26 H1          8.0978    3.3132   -4.7323 H         1 <0>         0.0849
     27 H2          8.0604    1.6934   -3.9953 H         1 <0>         0.0869
     28 H3          8.5052    1.8817   -5.7084 H         1 <0>         0.0907
     29 H4          6.1763    1.0621   -5.4786 H         1 <0>         0.0918
     30 H5          6.2137    2.6819   -6.2156 H         1 <0>         0.0896
     31 H6          1.7009    2.6020   -4.6607 H         1 <0>         0.1287
     32 H7          1.5142    3.9658   -3.5325 H         1 <0>         0.0853
     33 H8          1.5590    0.9927   -2.8771 H         1 <0>         0.1190
     34 H9          0.2325    2.1500   -2.6107 H         1 <0>         0.0973
     35 H10        -2.0240    1.3745    0.0191 H         1 <0>         0.2278
     36 H11        -1.2038    2.8408    0.0232 H         1 <0>         0.2190
     37 H12         0.6464    1.5911    2.6525 H         1 <0>         0.2581
     38 H13         3.3692    3.1946    6.0789 H         1 <0>         0.1782
     39 H14         1.9108    2.3147    8.1605 H         1 <0>         0.1657
     40 H15        -0.1795    1.0744    7.1775 H         1 <0>         0.2051
     41 H16         4.9316    3.2679   -2.0563 H         1 <0>         0.1227
     42 H17         3.8369    4.6666   -2.2377 H         1 <0>         0.0946
@<TRIPOS>BOND
     1    1    2 1
     2    1   26 1
     3    1   27 1
     4    1   28 1
     5    2    3 1
     6    2   29 1
     7    2   30 1
     8    3    4 1
     9    4    5 2
    10    4    6 am
    11    6   25 1
    12    6    7 1
    13    7    8 1
    14    7   31 1
    15    7   32 1
    16    8    9 1
    17    8   33 1
    18    8   34 1
    19    9   13 1
    20    9   10 2
    21   10   11 1
    22   10   25 1
    23   11   12 1
    24   12   13 2
    25   12   17 1
    26   13   14 1
    27   14   15 2
    28   14   16 am
    29   16   35 1
    30   16   36 1
    31   17   18 am
    32   17   37 1
    33   18   19 2
    34   18   20 1
    35   20   24 1
    36   20   21 2
    37   21   22 1
    38   21   38 1
    39   22   23 2
    40   22   39 1
    41   23   24 1
    42   23   40 1
    43   25   41 1
    44   25   42 1
@<TRIPOS>MOLECULE
ZINC04284111
   42    43     0     0     0
SMALL
USER_CHARGES

@<TRIPOS>ATOM
      1 C1        -10.9192    6.0052    7.1699 C.3       1 <0>        -0.0540
      2 N1         -9.8338    5.9931    8.1538 N.pl3     1 <0>        -0.8848
      3 S1         -9.0119    4.5891    8.4627 S.o2      1 <0>         2.7635
      4 O1         -9.9924    3.5837    8.6793 O.2       1 <0>        -0.9158
      5 O2         -8.0179    4.9044    9.4281 O.2       1 <0>        -0.9169
      6 C2         -8.1577    4.1496    6.9856 C.ar      1 <0>        -0.7805
      7 C3         -6.8732    4.6131    6.7675 C.ar      1 <0>        -0.0100
      8 C4         -6.2008    4.2701    5.6110 C.ar      1 <0>        -0.1533
      9 C5         -6.8161    3.4588    4.6664 C.ar      1 <0>         0.1187
     10 C6         -8.1083    2.9993    4.8860 C.ar      1 <0>        -0.1884
     11 C7         -8.7732    3.3417    6.0471 C.ar      1 <0>        -0.0141
     12 N2         -6.1382    3.1100    3.4940 N.am      1 <0>        -0.3277
     13 C8         -4.8064    2.9050    3.5212 C.2       1 <0>         0.3518
     14 O3         -4.1814    3.1048    4.5446 O.2       1 <0>        -0.3503
     15 C9         -4.1056    2.4370    2.3066 C.ar      1 <0>        -0.0883
     16 C10        -4.8211    2.2067    1.1299 C.ar      1 <0>        -0.1658
     17 C11        -4.1648    1.7695   -0.0023 C.ar      1 <0>        -0.0894
     18 C12        -2.7988    1.5579    0.0230 C.ar      1 <0>        -0.1856
     19 C13        -2.0774    1.7837    1.1892 C.ar      1 <0>         0.1176
     20 C14        -2.7284    2.2182    2.3340 C.ar      1 <0>        -0.1425
     21 N3         -0.6972    1.5676    1.2099 N.pl3     1 <0>        -0.3394
     22 C15        -0.0105    1.1028    0.0021 C.3       1 <0>        -0.0494
     23 C16         0.0632    1.8056    2.4392 C.3       1 <0>        -0.0492
     24 H1        -11.6973    5.3070    7.4787 H         1 <0>         0.0890
     25 H2        -11.3378    7.0093    7.1030 H         1 <0>         0.0873
     26 H3        -10.5301    5.7080    6.1960 H         1 <0>         0.0683
     27 H4         -9.5966    6.8076    8.6242 H         1 <0>         0.2438
     28 H5         -6.3952    5.2436    7.5026 H         1 <0>         0.1536
     29 H6         -5.1975    4.6320    5.4414 H         1 <0>         0.1721
     30 H7         -8.5911    2.3719    4.1515 H         1 <0>         0.1354
     31 H8         -9.7765    2.9814    6.2204 H         1 <0>         0.1497
     32 H9         -6.6265    3.0156    2.6612 H         1 <0>         0.2390
     33 H10        -5.8883    2.3704    1.1061 H         1 <0>         0.1196
     34 H11        -4.7202    1.5916   -0.9113 H         1 <0>         0.1320
     35 H12        -2.2907    1.2157   -0.8665 H         1 <0>         0.1361
     36 H13        -2.1704    2.3899    3.2425 H         1 <0>         0.1591
     37 H14         0.0029    0.0130   -0.0116 H         1 <0>         0.0678
     38 H15         1.0126    1.4788   -0.0015 H         1 <0>         0.0801
     39 H16        -0.5360    1.4708   -0.8790 H         1 <0>         0.0831
     40 H17         1.1160    1.5846    2.2638 H         1 <0>         0.0840
     41 H18        -0.0445    2.8487    2.7368 H         1 <0>         0.0760
     42 H19        -0.3163    1.1607    3.2318 H         1 <0>         0.0777
@<TRIPOS>BOND
     1    1    2 1
     2    1   24 1
     3    1   25 1
     4    1   26 1
     5    2    3 1
     6    2   27 1
     7    3    4 2
     8    3    5 2
     9    3    6 1
    10    6   11 ar
    11    6    7 ar
    12    7    8 ar
    13    7   28 1
    14    8    9 ar
    15    8   29 1
    16    9   10 ar
    17    9   12 1
    18   10   11 ar
    19   10   30 1
    20   11   31 1
    21   12   13 am
    22   12   32 1
    23   13   14 2
    24   13   15 1
    25   15   20 ar
    26   15   16 ar
    27   16   17 ar
    28   16   33 1
    29   17   18 ar
    30   17   34 1
    31   18   19 ar
    32   18   35 1
    33   19   20 ar
    34   19   21 1
    35   20   36 1
    36   21   22 1
    37   21   23 1
    38   22   37 1
    39   22   38 1
    40   22   39 1
    41   23   40 1
    42   23   41 1
    43   23   42 1
@<TRIPOS>MOLECULE
ZINC04301499
   51    54     0     0     0
SMALL
USER_CHARGES

@<TRIPOS>ATOM
      1 C1         -2.2336    7.3276    3.2431 C.3       1 <0>        -0.2125
      2 C2         -2.7490    8.1308    2.0472 C.3       1 <0>        -0.0648
      3 C3         -3.2115    7.1744    0.9464 C.3       1 <0>        -0.1093
      4 C4         -2.0481    6.3270    0.4861 C.2       1 <0>         0.1076
      5 C5         -0.7928    6.8113    0.5173 C.2       1 <0>        -0.2422
      6 C6          0.3667    5.9650    0.0504 C.3       1 <0>         0.0440
      7 H1          1.2106    6.1039    0.7261 H         1 <0>         0.1210
      8 C7         -0.0247    4.5154    0.0343 C.2       1 <0>        -0.2870
      9 C8          0.9688    3.5096    0.0174 C.cat     1 <0>         0.2850
     10 N1          0.5598    2.1897    0.0088 N.pl3     1 <0>        -0.1956
     11 C9         -0.7666    1.9047    0.0210 C.2       1 <0>         0.1448
     12 N2         -1.6671    2.8452    0.0307 N.2       1 <0>        -0.1871
     13 C10        -1.3369    4.1499    0.0388 C.2       1 <0>         0.2802
     14 O1         -2.3095    5.0836    0.0449 O.3       1 <0>        -0.0849
     15 C11         1.5485    1.1089   -0.0129 C.3       1 <0>        -0.0580
     16 C12         2.0017    0.8036    1.4163 C.3       1 <0>        -0.0200
     17 O2          2.9662   -0.2506    1.3952 O.3       1 <0>        -0.3372
     18 C13         0.7674    6.3896   -1.3390 C.ar      1 <0>        -0.1135
     19 C14        -0.1376    6.2929   -2.3793 C.ar      1 <0>        -0.1190
     20 C15         0.2286    6.6865   -3.6528 C.ar      1 <0>        -0.1134
     21 C16         1.5028    7.1683   -3.8878 C.ar      1 <0>        -0.1048
     22 C17         2.4096    7.2600   -2.8484 C.ar      1 <0>        -0.1124
     23 C18         2.0419    6.8705   -1.5740 C.ar      1 <0>        -0.1225
     24 C19        -0.5199    8.1113    0.9834 C.2       1 <0>         0.2779
     25 O3          0.6242    8.5193    0.9771 O.2       1 <0>        -0.2757
     26 C20        -1.6203    9.0045    1.4887 C.3       1 <0>        -0.1855
     27 C21        -3.9154    9.0175    2.4876 C.3       1 <0>        -0.2012
     28 H2         -1.8880    8.0116    4.0184 H         1 <0>         0.0984
     29 H3         -3.0383    6.7075    3.6381 H         1 <0>         0.0879
     30 H4         -1.4075    6.6917    2.9250 H         1 <0>         0.0656
     31 H5         -3.9994    6.5288    1.3345 H         1 <0>         0.1237
     32 H6         -3.5958    7.7496    0.1041 H         1 <0>         0.1295
     33 H7          2.9929    3.1922   -0.0007 H         1 <0>         0.2659
     34 H8         -1.0834    0.8722    0.0179 H         1 <0>         0.2399
     35 H9          1.1017    0.2164   -0.4508 H         1 <0>         0.1523
     36 H10         2.4083    1.4148   -0.6091 H         1 <0>         0.1300
     37 H11         2.4485    1.6962    1.8543 H         1 <0>         0.0664
     38 H12         1.1420    0.4977    2.0125 H         1 <0>         0.0841
     39 H13         3.2983   -0.4973    2.2693 H         1 <0>         0.2482
     40 H14        -1.1320    5.9131   -2.1965 H         1 <0>         0.1272
     41 H15        -0.4799    6.6151   -4.4648 H         1 <0>         0.1458
     42 H16         1.7898    7.4732   -4.8832 H         1 <0>         0.1483
     43 H17         3.4051    7.6363   -3.0319 H         1 <0>         0.1468
     44 H18         2.7503    6.9422   -0.7620 H         1 <0>         0.1286
     45 H19        -1.2697    9.5990    2.2124 H         1 <0>         0.1229
     46 H20        -1.9998    9.6155    0.6698 H         1 <0>         0.1254
     47 H21        -4.2850    9.5830    1.6321 H         1 <0>         0.0854
     48 H22        -4.7164    8.3936    2.8842 H         1 <0>         0.0884
     49 H23        -3.5759    9.7075    3.2600 H         1 <0>         0.0968
     50 N3          2.2514    3.8927    0.0110 N.pl3     1 <0>        -0.3287
     51 H24         2.4889    4.8916    0.0180 H         1 <0>         0.3072
@<TRIPOS>BOND
     1    1    2 1
     2    1   28 1
     3    1   29 1
     4    1   30 1
     5    2   26 1
     6    2    3 1
     7    2   27 1
     8    3    4 1
     9    3   31 1
    10    3   32 1
    11    4   14 1
    12    4    5 2
    13    5    6 1
    14    5   24 1
    15    6    7 1
    16    6    8 1
    17    6   18 1
    18    8   13 2
    19    8    9 1
    20    9   10 1
    21    9   50 2
    22   10   11 1
    23   10   15 1
    24   11   12 2
    25   11   34 1
    26   12   13 1
    27   13   14 1
    28   15   16 1
    29   15   35 1
    30   15   36 1
    31   16   17 1
    32   16   37 1
    33   16   38 1
    34   17   39 1
    35   18   23 ar
    36   18   19 ar
    37   19   20 ar
    38   19   40 1
    39   20   21 ar
    40   20   41 1
    41   21   22 ar
    42   21   42 1
    43   22   23 ar
    44   22   43 1
    45   23   44 1
    46   24   25 2
    47   24   26 1
    48   26   45 1
    49   26   46 1
    50   27   47 1
    51   27   48 1
    52   27   49 1
    53   33   50 1
    54   50   51 1
@<TRIPOS>MOLECULE
ZINC04306131
   46    48     0     0     0
SMALL
USER_CHARGES

@<TRIPOS>ATOM
      1 C1         -1.2058   12.0418    1.9575 C.3       1 <0>        -0.2117
      2 C2         -1.7501   11.2512    0.7661 C.3       1 <0>        -0.0161
      3 O1         -0.9462   10.0880    0.5590 O.3       1 <0>        -0.2131
      4 C3         -1.2971    9.2701   -0.4691 C.ar      1 <0>         0.0903
      5 C4         -0.5594    8.1238   -0.7258 C.ar      1 <0>        -0.1474
      6 C5         -0.9148    7.2928   -1.7700 C.ar      1 <0>        -0.0795
      7 C6         -2.0114    7.6048   -2.5628 C.ar      1 <0>         0.0179
      8 C7         -2.7465    8.7551   -2.3081 C.ar      1 <0>        -0.1133
      9 C8         -2.3924    9.5827   -1.2609 C.ar      1 <0>        -0.2076
     10 N1         -2.3722    6.7631   -3.6220 N.pl3     1 <0>        -0.2650
     11 C9         -2.2301    5.3893   -3.4953 C.ar      1 <0>         0.2942
     12 C10        -2.4724    4.5522   -4.5808 C.ar      1 <0>        -0.3836
     13 C11        -2.3167    3.1804   -4.4069 C.ar      1 <0>         0.3012
     14 N2         -1.9386    2.7168   -3.2176 N.ar      1 <0>        -0.3504
     15 C12        -1.7214    3.5428   -2.2054 C.ar      1 <0>         0.2464
     16 N3         -1.8597    4.8538   -2.3343 N.ar      1 <0>        -0.3147
     17 N4         -1.3343    3.0231   -0.9827 N.pl3     1 <0>        -0.1683
     18 C13        -1.2369    1.5573   -1.0403 C.3       1 <0>        -0.1019
     19 C14        -0.7496    1.0301    0.3119 C.3       1 <0>        -0.0186
     20 O2         -1.6390    1.4735    1.3403 O.3       1 <0>        -0.2793
     21 C15        -1.7581    2.8963    1.4244 C.3       1 <0>        -0.0158
     22 C16        -2.2556    3.4424    0.0835 C.3       1 <0>        -0.1019
     23 N5         -2.5470    2.3084   -5.4596 N.pl3     1 <0>        -0.3711
     24 N6         -2.8865    5.1081   -5.8888 N.pl3     1 <0>         0.5517
     25 O3         -2.0448    5.4157   -6.7137 O.2       1 <0>        -0.3466
     26 O4         -4.0688    5.2579   -6.1401 O.3       1 <0>        -0.3531
     27 H1         -1.2328   11.4177    2.8507 H         1 <0>         0.0885
     28 H2         -0.1777   12.3421    1.7551 H         1 <0>         0.0890
     29 H3         -1.8190   12.9290    2.1155 H         1 <0>         0.0866
     30 H4         -1.7231   11.8753   -0.1270 H         1 <0>         0.0743
     31 H5         -2.7782   10.9509    0.9686 H         1 <0>         0.0739
     32 H6          0.2934    7.8813   -0.1091 H         1 <0>         0.1485
     33 H7         -0.3403    6.4004   -1.9697 H         1 <0>         0.1628
     34 H8         -3.5971    9.0006   -2.9268 H         1 <0>         0.1344
     35 H9         -2.9662   10.4754   -1.0603 H         1 <0>         0.1388
     36 H10        -2.7215    7.1408   -4.4443 H         1 <0>         0.2562
     37 H11        -0.5305    1.2698   -1.8191 H         1 <0>         0.1194
     38 H12        -2.2170    1.1359   -1.2635 H         1 <0>         0.0923
     39 H13        -0.7304   -0.0596    0.2922 H         1 <0>         0.1151
     40 H14         0.2533    1.4083    0.5100 H         1 <0>         0.0801
     41 H15        -0.7848    3.3293    1.6553 H         1 <0>         0.0831
     42 H16        -2.4679    3.1570    2.2095 H         1 <0>         0.1162
     43 H17        -2.2928    4.5310    0.1251 H         1 <0>         0.1293
     44 H18        -3.2520    3.0511   -0.1218 H         1 <0>         0.0822
     45 H19        -2.8187    2.6534   -6.3246 H         1 <0>         0.2431
     46 H20        -2.4365    1.3533   -5.3314 H         1 <0>         0.2437
@<TRIPOS>BOND
     1    1    2 1
     2    1   27 1
     3    1   28 1
     4    1   29 1
     5    2    3 1
     6    2   30 1
     7    2   31 1
     8    3    4 1
     9    4    9 ar
    10    4    5 ar
    11    5    6 ar
    12    5   32 1
    13    6    7 ar
    14    6   33 1
    15    7    8 ar
    16    7   10 1
    17    8    9 ar
    18    8   34 1
    19    9   35 1
    20   10   11 1
    21   10   36 1
    22   11   16 ar
    23   11   12 ar
    24   12   13 ar
    25   12   24 1
    26   13   14 ar
    27   13   23 1
    28   14   15 ar
    29   15   16 ar
    30   15   17 1
    31   17   22 1
    32   17   18 1
    33   18   19 1
    34   18   37 1
    35   18   38 1
    36   19   20 1
    37   19   39 1
    38   19   40 1
    39   20   21 1
    40   21   22 1
    41   21   41 1
    42   21   42 1
    43   22   43 1
    44   22   44 1
    45   23   45 1
    46   23   46 1
    47   24   25 2
    48   24   26 1
@<TRIPOS>MOLECULE
ZINC04306149
   45    47     0     0     0
SMALL
USER_CHARGES

@<TRIPOS>ATOM
      1 C1          3.3702   -4.0313   -2.6179 C.3       1 <0>        -0.2061
      2 C2          3.5594   -2.6710   -3.2923 C.3       1 <0>         0.0320
      3 H1          4.3640   -2.1279   -2.7967 H         1 <0>         0.0912
      4 C3          2.2609   -1.8661   -3.1926 C.3       1 <0>        -0.0954
      5 N1          2.4238   -0.5924   -3.9086 N.pl3     1 <0>        -0.1688
      6 C4          2.7640   -0.8277   -5.3193 C.3       1 <0>        -0.0966
      7 C5          4.0574   -1.6431   -5.3977 C.3       1 <0>         0.0287
      8 H2          4.8762   -1.0694   -4.9635 H         1 <0>         0.0886
      9 O1          3.8907   -2.8631   -4.6702 O.3       1 <0>        -0.2792
     10 C6          4.3744   -1.9589   -6.8608 C.3       1 <0>        -0.2047
     11 C7          1.2870    0.1886   -3.7962 C.ar      1 <0>         0.2506
     12 N2          0.6788    0.6045   -4.8969 N.ar      1 <0>        -0.3527
     13 C8         -0.4167    1.3572   -4.8274 C.ar      1 <0>         0.3016
     14 C9         -0.9243    1.7008   -3.5777 C.ar      1 <0>        -0.3859
     15 C10        -0.2552    1.2495   -2.4441 C.ar      1 <0>         0.2975
     16 N3          0.8354    0.5002   -2.5909 N.ar      1 <0>        -0.3274
     17 N4         -0.7213    1.5711   -1.1789 N.pl3     1 <0>        -0.3334
     18 C11        -0.0127    1.0858    0.0080 C.3       1 <0>         0.0865
     19 C12        -0.7181    1.5718    1.2479 C.2       1 <0>        -0.0975
     20 C13        -1.7041    0.9261    1.8962 C.2       1 <0>        -0.1850
     21 C14        -2.0700    1.7358    2.9959 C.2       1 <0>        -0.2245
     22 C15        -1.2858    2.8278    2.9539 C.2       1 <0>        -0.0829
     23 O2         -0.4649    2.7204    1.8963 O.3       1 <0>        -0.0484
     24 N5         -2.1439    2.5310   -3.4573 N.pl3     1 <0>         0.5531
     25 O3         -2.0523    3.7447   -3.4109 O.2       1 <0>        -0.3490
     26 O4         -3.2391    2.0005   -3.4048 O.3       1 <0>        -0.3527
     27 N6         -1.0471    1.7883   -5.9842 N.pl3     1 <0>        -0.3720
     28 H3          4.2938   -4.6054   -2.6926 H         1 <0>         0.0923
     29 H4          3.1177   -3.8843   -1.5678 H         1 <0>         0.0837
     30 H5          2.5645   -4.5733   -3.1129 H         1 <0>         0.0864
     31 H6          2.0348   -1.6683   -2.1448 H         1 <0>         0.1229
     32 H7          1.4454   -2.4338   -3.6407 H         1 <0>         0.0818
     33 H8          1.9565   -1.3788   -5.8014 H         1 <0>         0.0922
     34 H9          2.9043    0.1281   -5.8242 H         1 <0>         0.1199
     35 H10         4.4977   -1.0284   -7.4149 H         1 <0>         0.0841
     36 H11         5.2953   -2.5394   -6.9159 H         1 <0>         0.0906
     37 H12         3.5560   -2.5339   -7.2939 H         1 <0>         0.0866
     38 H13        -1.5165    2.1175   -1.0793 H         1 <0>         0.2553
     39 H14         0.0021   -0.0041    0.0020 H         1 <0>         0.1145
     40 H15         1.0099    1.4631    0.0003 H         1 <0>         0.1141
     41 H16        -2.1341   -0.0275    1.6278 H         1 <0>         0.1604
     42 H17        -2.8331    1.5192    3.7289 H         1 <0>         0.1599
     43 H18        -1.3087    3.6493    3.6547 H         1 <0>         0.2020
     44 H19        -0.6902    1.5417   -6.8517 H         1 <0>         0.2429
     45 H20        -1.8452    2.3366   -5.9261 H         1 <0>         0.2429
@<TRIPOS>BOND
     1    1    2 1
     2    1   28 1
     3    1   29 1
     4    1   30 1
     5    2    3 1
     6    2    9 1
     7    2    4 1
     8    4    5 1
     9    4   31 1
    10    4   32 1
    11    5    6 1
    12    5   11 1
    13    6    7 1
    14    6   33 1
    15    6   34 1
    16    7    8 1
    17    7    9 1
    18    7   10 1
    19   10   35 1
    20   10   36 1
    21   10   37 1
    22   11   16 ar
    23   11   12 ar
    24   12   13 ar
    25   13   14 ar
    26   13   27 1
    27   14   15 ar
    28   14   24 1
    29   15   16 ar
    30   15   17 1
    31   17   18 1
    32   17   38 1
    33   18   19 1
    34   18   39 1
    35   18   40 1
    36   19   23 1
    37   19   20 2
    38   20   21 1
    39   20   41 1
    40   21   22 2
    41   21   42 1
    42   22   23 1
    43   22   43 1
    44   24   25 2
    45   24   26 1
    46   27   44 1
    47   27   45 1
@<TRIPOS>MOLECULE
ZINC04306374
   45    47     0     0     0
SMALL
USER_CHARGES

@<TRIPOS>ATOM
      1 C1         -3.6347    7.1016    3.4328 C.3       1 <0>        -0.2061
      2 C2         -3.0274    6.7817    2.0654 C.3       1 <0>         0.0321
      3 H1         -3.6193    7.2580    1.2838 H         1 <0>         0.0902
      4 C3         -3.0210    5.2658    1.8509 C.3       1 <0>        -0.0971
      5 N1         -2.3668    4.9601    0.5703 N.pl3     1 <0>        -0.1692
      6 C4         -0.9909    5.4777    0.5515 C.3       1 <0>        -0.0974
      7 C5         -1.0177    6.9914    0.7791 C.3       1 <0>         0.0290
      8 H2         -1.5511    7.4732   -0.0404 H         1 <0>         0.0881
      9 O1         -1.6847    7.2712    2.0128 O.3       1 <0>        -0.2785
     10 C6          0.4151    7.5244    0.8395 C.3       1 <0>        -0.2048
     11 C7         -2.3887    3.6002    0.3145 C.ar      1 <0>         0.2474
     12 N2         -1.2455    2.9653    0.1032 N.ar      1 <0>        -0.3470
     13 C8         -1.2283    1.6589   -0.1511 C.ar      1 <0>         0.3009
     14 C9         -2.4311    0.9589   -0.1815 C.ar      1 <0>        -0.3801
     15 C10        -3.6110    1.6590    0.0509 C.ar      1 <0>         0.2945
     16 N3         -3.5513    2.9668    0.2932 N.ar      1 <0>        -0.3140
     17 N4         -4.8331    1.0029    0.0308 N.pl3     1 <0>        -0.2696
     18 C11        -6.0200    1.7324    0.1459 C.ar      1 <0>         0.0881
     19 C12        -6.1243    2.9884   -0.4389 C.ar      1 <0>        -0.1335
     20 C13        -7.2976    3.7076   -0.3241 C.ar      1 <0>        -0.0898
     21 C14        -8.3693    3.1797    0.3721 C.ar      1 <0>        -0.1803
     22 C15        -8.2697    1.9281    0.9566 C.ar      1 <0>         0.1151
     23 C16        -7.0986    1.2008    0.8399 C.ar      1 <0>        -0.1980
     24 F1         -9.3184    1.4148    1.6363 F         1 <0>        -0.1030
     25 N5         -2.4545   -0.4959   -0.4542 N.pl3     1 <0>         0.5503
     26 O2         -2.3767   -1.2895    0.4665 O.2       1 <0>        -0.3503
     27 O3         -2.5514   -0.8994   -1.5994 O.3       1 <0>        -0.3454
     28 N6         -0.0281    1.0031   -0.3768 N.pl3     1 <0>        -0.3696
     29 H3         -3.6355    8.1807    3.5865 H         1 <0>         0.0924
     30 H4         -4.6580    6.7282    3.4722 H         1 <0>         0.0856
     31 H5         -3.0432    6.6238    4.2138 H         1 <0>         0.0870
     32 H6         -4.0463    4.8963    1.8332 H         1 <0>         0.1276
     33 H7         -2.4744    4.7857    2.6626 H         1 <0>         0.0836
     34 H8         -0.4119    5.0009    1.3424 H         1 <0>         0.0934
     35 H9         -0.5344    5.2628   -0.4147 H         1 <0>         0.1190
     36 H10         0.9234    7.3075   -0.1000 H         1 <0>         0.0839
     37 H11         0.3954    8.6021    1.0015 H         1 <0>         0.0914
     38 H12         0.9474    7.0433    1.6601 H         1 <0>         0.0871
     39 H13        -4.8641    0.0379   -0.0630 H         1 <0>         0.2596
     40 H14        -5.2883    3.4020   -0.9833 H         1 <0>         0.1627
     41 H15        -7.3784    4.6837   -0.7791 H         1 <0>         0.1413
     42 H16        -9.2858    3.7442    0.4600 H         1 <0>         0.1459
     43 H17        -7.0220    0.2228    1.2918 H         1 <0>         0.1491
     44 H18        -0.0227    0.0501   -0.5576 H         1 <0>         0.2438
     45 H19         0.8059    1.4980   -0.3581 H         1 <0>         0.2446
@<TRIPOS>BOND
     1    1    2 1
     2    1   29 1
     3    1   30 1
     4    1   31 1
     5    2    3 1
     6    2    9 1
     7    2    4 1
     8    4    5 1
     9    4   32 1
    10    4   33 1
    11    5    6 1
    12    5   11 1
    13    6    7 1
    14    6   34 1
    15    6   35 1
    16    7    8 1
    17    7    9 1
    18    7   10 1
    19   10   36 1
    20   10   37 1
    21   10   38 1
    22   11   16 ar
    23   11   12 ar
    24   12   13 ar
    25   13   14 ar
    26   13   28 1
    27   14   15 ar
    28   14   25 1
    29   15   16 ar
    30   15   17 1
    31   17   18 1
    32   17   39 1
    33   18   23 ar
    34   18   19 ar
    35   19   20 ar
    36   19   40 1
    37   20   21 ar
    38   20   41 1
    39   21   22 ar
    40   21   42 1
    41   22   23 ar
    42   22   24 1
    43   23   43 1
    44   25   26 2
    45   25   27 1
    46   28   44 1
    47   28   45 1
@<TRIPOS>MOLECULE
ZINC04316714
   48    51     0     0     0
SMALL
USER_CHARGES

@<TRIPOS>ATOM
      1 C1         -1.5597    9.8285   -4.5772 C.3       1 <0>        -0.1871
      2 C2         -1.9210    8.4092   -4.2218 C.2       1 <0>         0.0815
      3 C3         -2.2416    7.5382   -5.2026 C.2       1 <0>        -0.2494
      4 C4         -2.5811    6.2092   -4.8758 C.2       1 <0>         0.1814
      5 C5         -2.5779    5.8259   -3.5505 C.2       1 <0>        -0.2419
      6 C6         -2.2374    6.7638   -2.5676 C.2       1 <0>         0.3489
      7 O1         -2.2298    6.4383   -1.3906 O.2       1 <0>        -0.3669
      8 N1         -1.9191    8.0237   -2.9188 N.am      1 <0>        -0.2524
      9 H1         -1.6775    8.6862   -2.2098 H         1 <0>         0.2543
     10 C7         -2.9344    4.4195   -3.1626 C.3       1 <0>         0.0930
     11 C8         -4.2856    4.3689   -2.5195 C.ar      1 <0>        -0.1315
     12 C9         -5.5362    4.6955   -2.9980 C.ar      1 <0>        -0.0617
     13 C10        -6.6075    4.5304   -2.1266 C.ar      1 <0>        -0.1735
     14 C11        -6.4230    4.0604   -0.8422 C.ar      1 <0>        -0.0913
     15 C12        -5.1684    3.7295   -0.3546 C.ar      1 <0>        -0.1704
     16 C13        -4.0845    3.8909   -1.2192 C.ar      1 <0>         0.1068
     17 N2         -2.7412    3.6427   -1.0005 N.am      1 <0>        -0.2453
     18 C14        -1.9903    3.9291   -2.0842 C.2       1 <0>         0.3628
     19 O2         -0.7866    3.8137   -2.1779 O.2       1 <0>        -0.3291
     20 C15        -2.1973    3.1346    0.2613 C.3       1 <0>         0.0278
     21 C16        -2.1816    1.6280    0.2311 C.2       1 <0>        -0.1889
     22 C17        -1.0653    0.9800    0.4548 C.2       1 <0>        -0.2064
     23 C18        -2.8740    3.5100   -4.3559 C.2       1 <0>        -0.3159
     24 C19        -2.8613    4.0137   -5.6177 C.2       1 <0>         0.3003
     25 O3         -2.9023    5.3354   -5.8532 O.3       1 <0>        -0.1531
     26 N3         -2.8050    3.1501   -6.6785 N.pl3     1 <0>        -0.3830
     27 C20        -2.8299    2.1208   -4.1653 C.2       1 <0>         0.3896
     28 O4         -2.8887    1.3722   -5.1244 O.2       1 <0>        -0.4133
     29 O5         -2.7224    1.6134   -2.9182 O.3       1 <0>        -0.2489
     30 C21        -2.6831    0.1900   -2.7981 C.3       1 <0>        -0.0520
     31 H2         -1.3314   10.3840   -3.6676 H         1 <0>         0.0891
     32 H3         -0.6879    9.8285   -5.2315 H         1 <0>         0.1084
     33 H4         -2.3986   10.2994   -5.0897 H         1 <0>         0.1070
     34 H5         -2.2383    7.8585   -6.2340 H         1 <0>         0.1614
     35 H6         -5.6777    5.0633   -4.0036 H         1 <0>         0.1341
     36 H7         -7.6045    4.7753   -2.4619 H         1 <0>         0.1257
     37 H8         -7.2821    3.9467   -0.1977 H         1 <0>         0.1253
     38 H9         -5.0350    3.3625    0.6524 H         1 <0>         0.1362
     39 H10        -2.8201    3.4750    1.0886 H         1 <0>         0.0967
     40 H11        -1.1812    3.5060    0.3947 H         1 <0>         0.1170
     41 H12        -3.0907    1.0825    0.0251 H         1 <0>         0.1263
     42 H13        -1.0541   -0.0997    0.4332 H         1 <0>         0.1085
     43 H14        -0.1553    1.5255    0.6565 H         1 <0>         0.1186
     44 H15        -2.2663    2.3455   -6.6208 H         1 <0>         0.2803
     45 H16        -3.3037    3.3428   -7.4878 H         1 <0>         0.2261
     46 H17        -1.8247   -0.1974   -3.3469 H         1 <0>         0.0777
     47 H18        -2.5957   -0.0836   -1.7466 H         1 <0>         0.1017
     48 H19        -3.5990   -0.2347   -3.2091 H         1 <0>         0.0758
@<TRIPOS>BOND
     1    1    2 1
     2    1   31 1
     3    1   32 1
     4    1   33 1
     5    2    8 1
     6    2    3 2
     7    3    4 1
     8    3   34 1
     9    4   25 1
    10    4    5 2
    11    5    6 1
    12    5   10 1
    13    6    7 2
    14    6    8 am
    15    8    9 1
    16   10   18 1
    17   10   11 1
    18   10   23 1
    19   11   16 ar
    20   11   12 ar
    21   12   13 ar
    22   12   35 1
    23   13   14 ar
    24   13   36 1
    25   14   15 ar
    26   14   37 1
    27   15   16 ar
    28   15   38 1
    29   16   17 1
    30   17   18 am
    31   17   20 1
    32   18   19 2
    33   20   21 1
    34   20   39 1
    35   20   40 1
    36   21   22 2
    37   21   41 1
    38   22   42 1
    39   22   43 1
    40   23   24 2
    41   23   27 1
    42   24   25 1
    43   24   26 1
    44   26   44 1
    45   26   45 1
    46   27   28 2
    47   27   29 1
    48   29   30 1
    49   30   46 1
    50   30   47 1
    51   30   48 1
@<TRIPOS>MOLECULE
ZINC04316714
   48    51     0     0     0
SMALL
USER_CHARGES

@<TRIPOS>ATOM
      1 C1         -1.5613    9.8289   -4.5771 C.3       1 <0>        -0.1666
      2 C2         -1.9220    8.4095   -4.2217 C.ar      1 <0>         0.0854
      3 C3         -2.2438    7.5388   -5.2024 C.ar      1 <0>        -0.2644
      4 C4         -2.5839    6.2100   -4.8756 C.ar      1 <0>         0.1887
      5 C5         -2.5801    5.8265   -3.5503 C.ar      1 <0>        -0.3290
      6 C6         -2.2373    6.7638   -2.5676 C.ar      1 <0>         0.2538
      7 O1         -2.2291    6.4381   -1.3907 O.3       1 <0>        -0.1915
      8 N1         -1.9190    8.0237   -2.9188 N.ar      1 <0>        -0.2398
      9 H1         -2.4879    5.4756   -1.3093 H         1 <0>         0.2786
     10 C7         -2.9378    4.4204   -3.1623 C.3       1 <0>         0.0755
     11 C8         -4.2889    4.3711   -2.5188 C.ar      1 <0>        -0.1356
     12 C9         -5.5393    4.6989   -2.9969 C.ar      1 <0>        -0.0517
     13 C10        -6.6105    4.5348   -2.1251 C.ar      1 <0>        -0.1554
     14 C11        -6.4260    4.0647   -0.8408 C.ar      1 <0>        -0.0927
     15 C12        -5.1716    3.7326   -0.3536 C.ar      1 <0>        -0.1523
     16 C13        -4.0878    3.8929   -1.2185 C.ar      1 <0>         0.0541
     17 N2         -2.7447    3.6434   -1.0003 N.am      1 <0>        -0.2750
     18 C14        -1.9938    3.9291   -2.0842 C.2       1 <0>         0.3074
     19 O2         -0.7903    3.8126   -2.1783 O.2       1 <0>        -0.2930
     20 C15        -2.2009    3.1348    0.2613 C.3       1 <0>         0.0197
     21 C16        -2.1866    1.6282    0.2311 C.2       1 <0>        -0.1932
     22 C17        -1.0709    0.9791    0.4545 C.2       1 <0>        -0.1952
     23 C18        -2.8782    3.5109   -4.3558 C.2       1 <0>        -0.3290
     24 C19        -2.8660    4.0147   -5.6176 C.2       1 <0>         0.3171
     25 O3         -2.9062    5.3365   -5.8529 O.3       1 <0>        -0.1510
     26 N3         -2.8109    3.1512   -6.6785 N.pl3     1 <0>        -0.3800
     27 C20        -2.8348    2.1216   -4.1654 C.2       1 <0>         0.3886
     28 O4         -2.8947    1.3732   -5.1246 O.2       1 <0>        -0.4102
     29 O5         -2.7269    1.6140   -2.9184 O.3       1 <0>        -0.2574
     30 C21        -2.6884    0.1906   -2.7985 C.3       1 <0>        -0.0519
     31 H2         -1.3329   10.3844   -3.6675 H         1 <0>         0.1073
     32 H3         -0.6897    9.8293   -5.2316 H         1 <0>         0.0934
     33 H4         -2.4005   10.2996   -5.0893 H         1 <0>         0.0917
     34 H5         -2.2406    7.8591   -6.2338 H         1 <0>         0.1509
     35 H6         -5.6808    5.0669   -4.0024 H         1 <0>         0.1452
     36 H7         -7.6074    4.7807   -2.4601 H         1 <0>         0.1339
     37 H8         -7.2850    3.9518   -0.1960 H         1 <0>         0.1327
     38 H9         -5.0382    3.3654    0.6534 H         1 <0>         0.1406
     39 H10        -2.8231    3.4758    1.0888 H         1 <0>         0.1007
     40 H11        -1.1844    3.5052    0.3944 H         1 <0>         0.1180
     41 H12        -3.0963    1.0836    0.0254 H         1 <0>         0.1311
     42 H13        -1.0607   -0.1006    0.4328 H         1 <0>         0.1142
     43 H14        -0.1603    1.5238    0.6559 H         1 <0>         0.1198
     44 H15        -2.2726    2.3463   -6.6212 H         1 <0>         0.2807
     45 H16        -3.3100    3.3443   -7.4875 H         1 <0>         0.2288
     46 H17        -1.8306   -0.1973   -3.3479 H         1 <0>         0.0798
     47 H18        -2.6005   -0.0832   -1.7471 H         1 <0>         0.0998
     48 H19        -3.6048   -0.2335   -3.2090 H         1 <0>         0.0776
@<TRIPOS>BOND
     1    1    2 1
     2    1   31 1
     3    1   32 1
     4    1   33 1
     5    2    3 ar
     6    2    8 ar
     7    3   34 1
     8    3    4 ar
     9    4   25 1
    10    4    5 ar
    11    5   10 1
    12    5    6 ar
    13    6    8 ar
    14    6    7 1
    15    7    9 1
    16   10   18 1
    17   10   11 1
    18   10   23 1
    19   11   16 ar
    20   11   12 ar
    21   12   13 ar
    22   12   35 1
    23   13   14 ar
    24   13   36 1
    25   14   15 ar
    26   14   37 1
    27   15   16 ar
    28   15   38 1
    29   16   17 1
    30   17   18 am
    31   17   20 1
    32   18   19 2
    33   20   21 1
    34   20   39 1
    35   20   40 1
    36   21   22 2
    37   21   41 1
    38   22   42 1
    39   22   43 1
    40   23   24 2
    41   23   27 1
    42   24   25 1
    43   24   26 1
    44   26   44 1
    45   26   45 1
    46   27   28 2
    47   27   29 1
    48   29   30 1
    49   30   46 1
    50   30   47 1
    51   30   48 1
@<TRIPOS>MOLECULE
ZINC04316746
   38    40     0     0     0
SMALL
USER_CHARGES

@<TRIPOS>ATOM
      1 C1          0.1094   -2.6283   -0.6277 C.ar      1 <0>        -0.0666
      2 C2          1.2449   -2.0161   -0.1292 C.ar      1 <0>        -0.1541
      3 C3          1.1561   -0.7765    0.4768 C.ar      1 <0>        -0.0531
      4 C4         -0.0694   -0.1504    0.5956 C.ar      1 <0>        -0.1495
      5 C5         -1.2113   -0.7622    0.0957 C.ar      1 <0>         0.1350
      6 C6         -1.1179   -2.0051   -0.5172 C.ar      1 <0>        -0.1410
      7 N1         -2.4533   -0.1278    0.2089 N.am      1 <0>        -0.3212
      8 C7         -3.5675   -0.8588    0.4108 C.2       1 <0>         0.3190
      9 O1         -3.4835   -2.0555    0.5898 O.2       1 <0>        -0.3481
     10 C8         -4.9176   -0.1894    0.4141 C.3       1 <0>        -0.3113
     11 S1         -6.2044   -1.4278    0.7084 S.3       1 <0>         0.3111
     12 C9         -7.6347   -0.3997    0.6624 C.2       1 <0>        -0.0232
     13 C10        -8.9174   -0.9600    0.8512 C.2       1 <0>        -0.2476
     14 C11        -9.9982   -0.1492    0.8115 C.2       1 <0>         0.0828
     15 N2         -9.8203    1.1866    0.5897 N.am      1 <0>        -0.2689
     16 H1        -10.6136    1.7947    0.5591 H         1 <0>         0.2519
     17 C12        -8.5859    1.6900    0.4122 C.2       1 <0>         0.3466
     18 O2         -8.4482    2.8859    0.2149 O.2       1 <0>        -0.3532
     19 N3         -7.5111    0.9053    0.4557 N.2       1 <0>        -0.2758
     20 C13       -11.2617   -0.9500    1.0363 C.3       1 <0>        -0.1307
     21 C14       -10.7857   -2.2865    1.6467 C.3       1 <0>        -0.1556
     22 C15        -9.3421   -2.3886    1.1071 C.3       1 <0>        -0.1020
     23 N4         -0.1645    1.1740    1.2496 N.pl3     1 <0>         0.5570
     24 O3          0.8204    1.6696    1.7672 O.2       1 <0>        -0.3435
     25 O4         -1.2263    1.7704    1.2657 O.3       1 <0>        -0.3805
     26 H2          0.1826   -3.5948   -1.1042 H         1 <0>         0.1465
     27 H3          2.2037   -2.5052   -0.2175 H         1 <0>         0.1479
     28 H4          2.0453   -0.2990    0.8611 H         1 <0>         0.1666
     29 H5         -2.0042   -2.4834   -0.9073 H         1 <0>         0.1745
     30 H6         -2.5125    0.8380    0.1421 H         1 <0>         0.2727
     31 H7         -4.9488    0.5617    1.2034 H         1 <0>         0.1536
     32 H8         -5.0880    0.2896   -0.5501 H         1 <0>         0.1466
     33 H9        -11.9211   -0.4299    1.7311 H         1 <0>         0.1016
     34 H10       -11.7716   -1.1266    0.0893 H         1 <0>         0.1124
     35 H11       -10.7921   -2.2413    2.7358 H         1 <0>         0.0996
     36 H12       -11.3951   -3.1166    1.2897 H         1 <0>         0.0992
     37 H13        -9.3241   -2.9610    0.1797 H         1 <0>         0.0993
     38 H14        -8.6917   -2.8497    1.8504 H         1 <0>         0.1019
@<TRIPOS>BOND
     1    1    6 ar
     2    1    2 ar
     3    1   26 1
     4    2    3 ar
     5    2   27 1
     6    3    4 ar
     7    3   28 1
     8    4    5 ar
     9    4   23 1
    10    5    6 ar
    11    5    7 1
    12    6   29 1
    13    7    8 am
    14    7   30 1
    15    8    9 2
    16    8   10 1
    17   10   11 1
    18   10   31 1
    19   10   32 1
    20   11   12 1
    21   12   19 2
    22   12   13 1
    23   13   22 1
    24   13   14 2
    25   14   15 1
    26   14   20 1
    27   15   16 1
    28   15   17 am
    29   17   18 2
    30   17   19 1
    31   20   21 1
    32   20   33 1
    33   20   34 1
    34   21   22 1
    35   21   35 1
    36   21   36 1
    37   22   37 1
    38   22   38 1
    39   23   24 2
    40   23   25 1
@<TRIPOS>MOLECULE
ZINC04316746
   38    40     0     0     0
SMALL
USER_CHARGES

@<TRIPOS>ATOM
      1 C1          0.1102   -2.6276   -0.6229 C.ar      1 <0>        -0.0654
      2 C2          1.2455   -2.0153   -0.1240 C.ar      1 <0>        -0.1534
      3 C3          1.1563   -0.7757    0.4819 C.ar      1 <0>        -0.0529
      4 C4         -0.0693   -0.1496    0.6001 C.ar      1 <0>        -0.1502
      5 C5         -1.2109   -0.7616    0.0998 C.ar      1 <0>         0.1348
      6 C6         -1.1172   -2.0045   -0.5130 C.ar      1 <0>        -0.1405
      7 N1         -2.4530   -0.1272    0.2123 N.am      1 <0>        -0.3234
      8 C7         -3.5673   -0.8583    0.4138 C.2       1 <0>         0.3180
      9 O1         -3.4833   -2.0550    0.5929 O.2       1 <0>        -0.3414
     10 C8         -4.9174   -0.1890    0.4164 C.3       1 <0>        -0.3101
     11 S1         -6.2043   -1.4275    0.7102 S.3       1 <0>         0.3015
     12 C9         -7.6346   -0.3995    0.6635 C.ar      1 <0>        -0.0369
     13 C10        -8.9174   -0.9599    0.8517 C.ar      1 <0>        -0.2453
     14 C11        -9.9986   -0.1501    0.8059 C.ar      1 <0>         0.0894
     15 N2         -9.8212    1.1848    0.5786 N.ar      1 <0>        -0.2536
     16 H1         -7.4783    3.0924    0.0835 H         1 <0>         0.2787
     17 C12        -8.5868    1.6883    0.4012 C.ar      1 <0>         0.2436
     18 O2         -8.4500    2.8823    0.1921 O.3       1 <0>        -0.1672
     19 N3         -7.5115    0.9046    0.4513 N.ar      1 <0>        -0.3685
     20 C13       -11.2621   -0.9507    1.0318 C.3       1 <0>        -0.1120
     21 C14       -10.7866   -2.2842    1.6487 C.3       1 <0>        -0.1614
     22 C15        -9.3421   -2.3885    1.1075 C.3       1 <0>        -0.1060
     23 N4         -0.1648    1.1748    1.2540 N.pl3     1 <0>         0.5580
     24 O3          0.8198    1.6705    1.7720 O.2       1 <0>        -0.3419
     25 O4         -1.2267    1.7711    1.2696 O.3       1 <0>        -0.3865
     26 H2          0.1837   -3.5941   -1.0993 H         1 <0>         0.1475
     27 H3          2.2043   -2.5043   -0.2118 H         1 <0>         0.1487
     28 H4          2.0453   -0.2981    0.8666 H         1 <0>         0.1668
     29 H5         -2.0032   -2.4829   -0.9035 H         1 <0>         0.1752
     30 H6         -2.5123    0.8385    0.1455 H         1 <0>         0.2691
     31 H7         -4.9490    0.5621    1.2057 H         1 <0>         0.1431
     32 H8         -5.0874    0.2899   -0.5479 H         1 <0>         0.1359
     33 H9        -11.9231   -0.4280    1.7230 H         1 <0>         0.1093
     34 H10       -11.7700   -1.1318    0.0846 H         1 <0>         0.1106
     35 H11       -10.7956   -2.2342    2.7376 H         1 <0>         0.0963
     36 H12       -11.3945   -3.1163    1.2940 H         1 <0>         0.0948
     37 H13        -9.3236   -2.9610    0.1802 H         1 <0>         0.0979
     38 H14        -8.6920   -2.8495    1.8512 H         1 <0>         0.0971
@<TRIPOS>BOND
     1    1    6 ar
     2    1    2 ar
     3    1   26 1
     4    2    3 ar
     5    2   27 1
     6    3    4 ar
     7    3   28 1
     8    4    5 ar
     9    4   23 1
    10    5    6 ar
    11    5    7 1
    12    6   29 1
    13    7    8 am
    14    7   30 1
    15    8    9 2
    16    8   10 1
    17   10   11 1
    18   10   31 1
    19   10   32 1
    20   11   12 1
    21   12   19 ar
    22   12   13 ar
    23   13   22 1
    24   13   14 ar
    25   14   20 1
    26   14   15 ar
    27   15   17 ar
    28   16   18 1
    29   17   18 1
    30   17   19 ar
    31   20   21 1
    32   20   33 1
    33   20   34 1
    34   21   22 1
    35   21   35 1
    36   21   36 1
    37   22   37 1
    38   22   38 1
    39   23   24 2
    40   23   25 1
@<TRIPOS>MOLECULE
ZINC04316941
   41    43     0     0     0
SMALL
USER_CHARGES

@<TRIPOS>ATOM
      1 C1          0.1089   -2.6283   -0.6287 C.ar      1 <0>        -0.0667
      2 C2          1.2445   -2.0168   -0.1294 C.ar      1 <0>        -0.1541
      3 C3          1.1559   -0.7777    0.4775 C.ar      1 <0>        -0.0531
      4 C4         -0.0694   -0.1512    0.5963 C.ar      1 <0>        -0.1495
      5 C5         -1.2113   -0.7623    0.0957 C.ar      1 <0>         0.1350
      6 C6         -1.1182   -2.0048   -0.5181 C.ar      1 <0>        -0.1409
      7 N1         -2.4533   -0.1280    0.2098 N.am      1 <0>        -0.3213
      8 C7         -3.5674   -0.8591    0.4116 C.2       1 <0>         0.3193
      9 O1         -3.4834   -2.0559    0.5898 O.2       1 <0>        -0.3488
     10 C8         -4.9175   -0.1896    0.4159 C.3       1 <0>        -0.3130
     11 S1         -6.2042   -1.4282    0.7099 S.3       1 <0>         0.3111
     12 C9         -7.6345   -0.4001    0.6651 C.2       1 <0>        -0.0403
     13 C10        -8.9193   -0.9654    0.8550 C.2       1 <0>        -0.2264
     14 C11        -9.9950   -0.1576    0.8217 C.2       1 <0>         0.1060
     15 N2         -9.8139    1.1811    0.5951 N.am      1 <0>        -0.2864
     16 H1        -10.6077    1.7883    0.5611 H         1 <0>         0.2536
     17 C12        -8.5827    1.6878    0.4181 C.2       1 <0>         0.3438
     18 O2         -8.4470    2.8839    0.2205 O.2       1 <0>        -0.3550
     19 N3         -7.5078    0.9030    0.4592 N.2       1 <0>        -0.2750
     20 C13       -11.4002   -0.6563    1.0250 C.3       1 <0>        -0.1375
     21 C14       -11.4679   -2.1696    0.8260 C.3       1 <0>        -0.1560
     22 C15       -10.3708   -2.8174    1.6796 C.3       1 <0>        -0.1605
     23 C16        -9.0152   -2.4502    1.0782 C.3       1 <0>        -0.1051
     24 N4         -0.1642    1.1728    1.2512 N.pl3     1 <0>         0.5570
     25 O3          0.8207    1.6677    1.7695 O.2       1 <0>        -0.3436
     26 O4         -1.2258    1.7696    1.2674 O.3       1 <0>        -0.3804
     27 H2          0.1820   -3.5945   -1.1058 H         1 <0>         0.1465
     28 H3          2.2032   -2.5063   -0.2178 H         1 <0>         0.1479
     29 H4          2.0452   -0.3007    0.8623 H         1 <0>         0.1666
     30 H5         -2.0045   -2.4825   -0.9088 H         1 <0>         0.1744
     31 H6         -2.5125    0.8380    0.1436 H         1 <0>         0.2727
     32 H7         -4.9484    0.5609    1.2057 H         1 <0>         0.1536
     33 H8         -5.0883    0.2900   -0.5479 H         1 <0>         0.1467
     34 H9        -12.0615   -0.1697    0.3081 H         1 <0>         0.1003
     35 H10       -11.7255   -0.4120    2.0363 H         1 <0>         0.1102
     36 H11       -11.3055   -2.4095   -0.2248 H         1 <0>         0.0941
     37 H12       -12.4441   -2.5388    1.1404 H         1 <0>         0.0925
     38 H13       -10.4934   -3.9005    1.6752 H         1 <0>         0.0921
     39 H14       -10.4321   -2.4449    2.7021 H         1 <0>         0.0899
     40 H15        -8.8933   -2.9654    0.1255 H         1 <0>         0.0978
     41 H16        -8.2235   -2.7630    1.7590 H         1 <0>         0.1028
@<TRIPOS>BOND
     1    1    6 ar
     2    1    2 ar
     3    1   27 1
     4    2    3 ar
     5    2   28 1
     6    3    4 ar
     7    3   29 1
     8    4    5 ar
     9    4   24 1
    10    5    6 ar
    11    5    7 1
    12    6   30 1
    13    7    8 am
    14    7   31 1
    15    8    9 2
    16    8   10 1
    17   10   11 1
    18   10   32 1
    19   10   33 1
    20   11   12 1
    21   12   19 2
    22   12   13 1
    23   13   23 1
    24   13   14 2
    25   14   15 1
    26   14   20 1
    27   15   16 1
    28   15   17 am
    29   17   18 2
    30   17   19 1
    31   20   21 1
    32   20   34 1
    33   20   35 1
    34   21   22 1
    35   21   36 1
    36   21   37 1
    37   22   23 1
    38   22   38 1
    39   22   39 1
    40   23   40 1
    41   23   41 1
    42   24   25 2
    43   24   26 1
@<TRIPOS>MOLECULE
ZINC04316941
   41    43     0     0     0
SMALL
USER_CHARGES

@<TRIPOS>ATOM
      1 C1          0.1060   -2.6307   -0.6447 C.ar      1 <0>        -0.0654
      2 C2          1.2425   -2.0196   -0.1470 C.ar      1 <0>        -0.1535
      3 C3          1.1552   -0.7806    0.4603 C.ar      1 <0>        -0.0529
      4 C4         -0.0697   -0.1538    0.5811 C.ar      1 <0>        -0.1501
      5 C5         -1.2126   -0.7645    0.0821 C.ar      1 <0>         0.1348
      6 C6         -1.1207   -2.0069   -0.5321 C.ar      1 <0>        -0.1405
      7 N1         -2.4542   -0.1299    0.1983 N.am      1 <0>        -0.3233
      8 C7         -3.5682   -0.8607    0.4016 C.2       1 <0>         0.3184
      9 O1         -3.4843   -2.0576    0.5794 O.2       1 <0>        -0.3421
     10 C8         -4.9181   -0.1909    0.4081 C.3       1 <0>        -0.3128
     11 S1         -6.2047   -1.4292    0.7038 S.3       1 <0>         0.3048
     12 C9         -7.6348   -0.4007    0.6614 C.ar      1 <0>        -0.0528
     13 C10        -8.9195   -0.9657    0.8532 C.ar      1 <0>        -0.2204
     14 C11        -9.9955   -0.1585    0.8161 C.ar      1 <0>         0.1024
     15 N2         -9.8148    1.1794    0.5839 N.ar      1 <0>        -0.2662
     16 H1         -7.4773    3.0926    0.0922 H         1 <0>         0.2769
     17 C12        -8.5836    1.6861    0.4071 C.ar      1 <0>         0.2389
     18 O2         -8.4485    2.8808    0.2009 O.3       1 <0>        -0.1680
     19 N3         -7.5085    0.9016    0.4501 N.ar      1 <0>        -0.3687
     20 C13       -11.4007   -0.6572    1.0188 C.3       1 <0>        -0.1114
     21 C14       -11.4676   -2.1710    0.8282 C.3       1 <0>        -0.1628
     22 C15       -10.3706   -2.8148    1.6850 C.3       1 <0>        -0.1589
     23 C16        -9.0154   -2.4505    1.0762 C.3       1 <0>        -0.1096
     24 N4         -0.1632    1.1701    1.2364 N.pl3     1 <0>         0.5579
     25 O3          0.8226    1.6646    1.7533 O.2       1 <0>        -0.3419
     26 O4         -1.2246    1.7672    1.2544 O.3       1 <0>        -0.3864
     27 H2          0.1781   -3.5968   -1.1221 H         1 <0>         0.1475
     28 H3          2.2010   -2.5093   -0.2370 H         1 <0>         0.1487
     29 H4          2.0452   -0.3039    0.8438 H         1 <0>         0.1668
     30 H5         -2.0078   -2.4843   -0.9215 H         1 <0>         0.1752
     31 H6         -2.5133    0.8362    0.1323 H         1 <0>         0.2693
     32 H7         -4.9476    0.5595    1.1981 H         1 <0>         0.1432
     33 H8         -5.0903    0.2890   -0.5553 H         1 <0>         0.1362
     34 H9        -12.0609   -0.1742    0.2985 H         1 <0>         0.1119
     35 H10       -11.7281   -0.4087    2.0284 H         1 <0>         0.1081
     36 H11       -11.3047   -2.4152   -0.2215 H         1 <0>         0.0894
     37 H12       -12.4438   -2.5393    1.1438 H         1 <0>         0.0886
     38 H13       -10.4928   -3.8979    1.6850 H         1 <0>         0.0866
     39 H14       -10.4324   -2.4380    2.7059 H         1 <0>         0.0892
     40 H15        -8.8951   -2.9655    0.1232 H         1 <0>         0.0961
     41 H16        -8.2228   -2.7637    1.7557 H         1 <0>         0.0971
@<TRIPOS>BOND
     1    1    6 ar
     2    1    2 ar
     3    1   27 1
     4    2    3 ar
     5    2   28 1
     6    3    4 ar
     7    3   29 1
     8    4    5 ar
     9    4   24 1
    10    5    6 ar
    11    5    7 1
    12    6   30 1
    13    7    8 am
    14    7   31 1
    15    8    9 2
    16    8   10 1
    17   10   11 1
    18   10   32 1
    19   10   33 1
    20   11   12 1
    21   12   19 ar
    22   12   13 ar
    23   13   23 1
    24   13   14 ar
    25   14   20 1
    26   14   15 ar
    27   15   17 ar
    28   16   18 1
    29   17   18 1
    30   17   19 ar
    31   20   21 1
    32   20   34 1
    33   20   35 1
    34   21   22 1
    35   21   36 1
    36   21   37 1
    37   22   23 1
    38   22   38 1
    39   22   39 1
    40   23   40 1
    41   23   41 1
    42   24   25 2
    43   24   26 1
@<TRIPOS>MOLECULE
ZINC04317212
   45    48     0     0     0
SMALL
USER_CHARGES

@<TRIPOS>ATOM
      1 C1         -8.4003    7.5214   -3.3322 C.3       1 <0>        -0.0619
      2 O1         -8.7642    6.2650   -2.7570 O.3       1 <0>        -0.2144
      3 C2         -8.2272    5.9621   -1.5459 C.ar      1 <0>         0.0948
      4 C3         -8.5376    4.7587   -0.9295 C.ar      1 <0>        -0.1566
      5 C4         -7.9900    4.4530    0.3014 C.ar      1 <0>        -0.0769
      6 C5         -7.1332    5.3453    0.9190 C.ar      1 <0>        -0.1033
      7 C6         -6.8266    6.5478    0.3093 C.ar      1 <0>        -0.0740
      8 C7         -7.3672    6.8557   -0.9242 C.ar      1 <0>        -0.2188
      9 C8         -6.5372    5.0092    2.2617 C.3       1 <0>        -0.0370
     10 C9         -5.2324    4.2815    2.0643 C.2       1 <0>        -0.2117
     11 C10        -4.4773    3.8572    3.1796 C.2       1 <0>         0.3142
     12 O2         -4.8647    4.0696    4.3163 O.2       1 <0>        -0.3466
     13 N1         -3.3123    3.2080    2.9519 N.am      1 <0>        -0.3123
     14 H1         -2.7470    2.8905    3.7133 H         1 <0>         0.2480
     15 C11        -2.9264    2.9964    1.6634 C.2       1 <0>         0.2156
     16 N2         -3.6752    3.4231    0.6613 N.2       1 <0>        -0.2180
     17 N3         -4.7874    4.0367    0.8546 N.2       1 <0>         0.0489
     18 N4         -1.7527    2.3425    1.4043 N.pl3     1 <0>        -0.3426
     19 C12        -1.3328    2.1122    0.0198 C.3       1 <0>         0.0560
     20 C13        -0.0167    1.3782    0.0096 C.ar      1 <0>        -0.1220
     21 C14         1.1693    2.0886    0.0021 C.ar      1 <0>        -0.1054
     22 C15         2.3790    1.4199   -0.0122 C.ar      1 <0>        -0.1168
     23 C16         2.4055    0.0347   -0.0206 C.ar      1 <0>         0.0185
     24 C17         1.2108   -0.6810   -0.0131 C.ar      1 <0>         0.0016
     25 C18         0.0021   -0.0041    0.0020 C.ar      1 <0>        -0.0955
     26 O3          1.5011   -2.0147   -0.0235 O.3       1 <0>        -0.2047
     27 C19         2.8735   -2.1061   -0.4495 C.3       1 <0>         0.1065
     28 O4          3.4443   -0.8506   -0.0356 O.3       1 <0>        -0.2047
     29 H2         -8.7062    8.3282   -2.6662 H         1 <0>         0.0662
     30 H3         -7.3201    7.5570   -3.4737 H         1 <0>         0.0684
     31 H4         -8.8969    7.6375   -4.2956 H         1 <0>         0.1048
     32 H5         -9.2071    4.0615   -1.4113 H         1 <0>         0.1406
     33 H6         -8.2311    3.5161    0.7815 H         1 <0>         0.1324
     34 H7         -6.1608    7.2451    0.7959 H         1 <0>         0.1285
     35 H8         -7.1239    7.7932   -1.4021 H         1 <0>         0.1318
     36 H9         -7.2273    4.3738    2.8167 H         1 <0>         0.1070
     37 H10        -6.3598    5.9280    2.8207 H         1 <0>         0.1065
     38 H11        -1.1988    2.0315    2.1373 H         1 <0>         0.2391
     39 H12        -1.2190    3.0692   -0.4894 H         1 <0>         0.1108
     40 H13        -2.0860    1.5147   -0.4937 H         1 <0>         0.1111
     41 H14         1.1506    3.1685    0.0077 H         1 <0>         0.1456
     42 H15         3.3040    1.9774   -0.0180 H         1 <0>         0.1491
     43 H16        -0.9259   -0.5565    0.0082 H         1 <0>         0.1503
     44 H17         2.9320   -2.2150   -1.5324 H         1 <0>         0.0926
     45 H18         3.3744   -2.9369    0.0476 H         1 <0>         0.1343
@<TRIPOS>BOND
     1    1    2 1
     2    1   29 1
     3    1   30 1
     4    1   31 1
     5    2    3 1
     6    3    8 ar
     7    3    4 ar
     8    4    5 ar
     9    4   32 1
    10    5    6 ar
    11    5   33 1
    12    6    7 ar
    13    6    9 1
    14    7    8 ar
    15    7   34 1
    16    8   35 1
    17    9   10 1
    18    9   36 1
    19    9   37 1
    20   10   17 2
    21   10   11 1
    22   11   12 2
    23   11   13 am
    24   13   14 1
    25   13   15 1
    26   15   16 2
    27   15   18 1
    28   16   17 1
    29   18   19 1
    30   18   38 1
    31   19   20 1
    32   19   39 1
    33   19   40 1
    34   20   25 ar
    35   20   21 ar
    36   21   22 ar
    37   21   41 1
    38   22   23 ar
    39   22   42 1
    40   23   28 1
    41   23   24 ar
    42   24   25 ar
    43   24   26 1
    44   25   43 1
    45   26   27 1
    46   27   28 1
    47   27   44 1
    48   27   45 1
@<TRIPOS>MOLECULE
ZINC04317212
   45    48     0     0     0
SMALL
USER_CHARGES

@<TRIPOS>ATOM
      1 C1         -8.4260    7.4877   -3.3344 C.3       1 <0>        -0.0621
      2 O1         -8.7834    6.2304   -2.7571 O.3       1 <0>        -0.2138
      3 C2         -8.2440    5.9319   -1.5460 C.ar      1 <0>         0.0935
      4 C3         -8.5481    4.7279   -0.9276 C.ar      1 <0>        -0.1583
      5 C4         -7.9980    4.4266    0.3033 C.ar      1 <0>        -0.0807
      6 C5         -7.1451    5.3239    0.9190 C.ar      1 <0>        -0.1113
      7 C6         -6.8447    6.5270    0.3073 C.ar      1 <0>        -0.0778
      8 C7         -7.3878    6.8305   -0.9262 C.ar      1 <0>        -0.2207
      9 C8         -6.5464    4.9926    2.2617 C.3       1 <0>        -0.0458
     10 C9         -5.2383    4.2710    2.0643 C.2       1 <0>        -0.1565
     11 C10        -4.4775    3.8568    3.1796 C.2       1 <0>         0.2816
     12 O2         -4.8649    4.0692    4.3163 O.2       1 <0>        -0.3215
     13 N1         -3.3127    3.2073    2.9519 N.2       1 <0>        -0.3422
     14 H1         -3.3691    3.2590   -0.2764 H         1 <0>         0.2757
     15 C11        -2.9268    2.9957    1.6634 C.2       1 <0>         0.2333
     16 N2         -3.6780    3.4180    0.6613 N.pl3     1 <0>        -0.2055
     17 N3         -4.7930    4.0266    0.8546 N.2       1 <0>        -0.0212
     18 N4         -1.7532    2.3415    1.4043 N.pl3     1 <0>        -0.3424
     19 C12        -1.3333    2.1112    0.0198 C.3       1 <0>         0.0287
     20 C13        -0.0175    1.3768    0.0096 C.ar      1 <0>        -0.1166
     21 C14         1.1688    2.0869    0.0022 C.ar      1 <0>        -0.1015
     22 C15         2.3783    1.4178   -0.0121 C.ar      1 <0>        -0.1146
     23 C16         2.4043    0.0326   -0.0206 C.ar      1 <0>         0.0230
     24 C17         1.2094   -0.6827   -0.0133 C.ar      1 <0>         0.0047
     25 C18         0.0009   -0.0055    0.0018 C.ar      1 <0>        -0.0926
     26 O3          1.4993   -2.0165   -0.0238 O.3       1 <0>        -0.2026
     27 C19         2.8717   -2.1083   -0.4497 C.3       1 <0>         0.1064
     28 O4          3.4429   -0.8530   -0.0356 O.3       1 <0>        -0.2025
     29 H2         -8.7352    8.2940   -2.6693 H         1 <0>         0.0685
     30 H3         -7.3461    7.5283   -3.4768 H         1 <0>         0.0662
     31 H4         -8.9239    7.6001   -4.2975 H         1 <0>         0.1066
     32 H5         -9.2146    4.0268   -1.4078 H         1 <0>         0.1419
     33 H6         -8.2342    3.4893    0.7850 H         1 <0>         0.1347
     34 H7         -6.1819    7.2282    0.7923 H         1 <0>         0.1307
     35 H8         -7.1494    7.7685   -1.4057 H         1 <0>         0.1330
     36 H9         -7.2330    4.3547    2.8181 H         1 <0>         0.1190
     37 H10        -6.3730    5.9131    2.8192 H         1 <0>         0.1184
     38 H11        -1.1995    2.0303    2.1373 H         1 <0>         0.2725
     39 H12        -1.2192    3.0683   -0.4893 H         1 <0>         0.0879
     40 H13        -2.0867    1.5140   -0.4938 H         1 <0>         0.0889
     41 H14         1.1504    3.1668    0.0080 H         1 <0>         0.1451
     42 H15         3.3034    1.9750   -0.0177 H         1 <0>         0.1513
     43 H16        -0.9272   -0.5576    0.0079 H         1 <0>         0.1500
     44 H17         2.9302   -2.2171   -1.5326 H         1 <0>         0.0919
     45 H18         3.3723   -2.9393    0.0473 H         1 <0>         0.1365
@<TRIPOS>BOND
     1    1    2 1
     2    1   29 1
     3    1   30 1
     4    1   31 1
     5    2    3 1
     6    3    8 ar
     7    3    4 ar
     8    4    5 ar
     9    4   32 1
    10    5    6 ar
    11    5   33 1
    12    6    7 ar
    13    6    9 1
    14    7    8 ar
    15    7   34 1
    16    8   35 1
    17    9   10 1
    18    9   36 1
    19    9   37 1
    20   10   11 1
    21   10   17 2
    22   11   13 1
    23   11   12 2
    24   13   15 2
    25   14   16 1
    26   15   18 1
    27   15   16 1
    28   16   17 1
    29   18   19 1
    30   18   38 1
    31   19   20 1
    32   19   39 1
    33   19   40 1
    34   20   25 ar
    35   20   21 ar
    36   21   22 ar
    37   21   41 1
    38   22   23 ar
    39   22   42 1
    40   23   28 1
    41   23   24 ar
    42   24   25 ar
    43   24   26 1
    44   25   43 1
    45   26   27 1
    46   27   28 1
    47   27   44 1
    48   27   45 1
@<TRIPOS>MOLECULE
ZINC04317212
   45    48     0     0     0
SMALL
USER_CHARGES

@<TRIPOS>ATOM
      1 C1         -8.4261    7.4876   -3.3344 C.3       1 <0>        -0.0625
      2 O1         -8.7834    6.2303   -2.7570 O.3       1 <0>        -0.2127
      3 C2         -8.2440    5.9318   -1.5459 C.ar      1 <0>         0.0991
      4 C3         -8.5481    4.7278   -0.9276 C.ar      1 <0>        -0.1545
      5 C4         -7.9981    4.4265    0.3033 C.ar      1 <0>        -0.0749
      6 C5         -7.1451    5.3239    0.9190 C.ar      1 <0>        -0.0968
      7 C6         -6.8448    6.5269    0.3073 C.ar      1 <0>        -0.0719
      8 C7         -7.3879    6.8304   -0.9262 C.ar      1 <0>        -0.2170
      9 C8         -6.5464    4.9926    2.2617 C.3       1 <0>        -0.0583
     10 C9         -5.2383    4.2709    2.0643 C.ar      1 <0>        -0.3186
     11 C10        -4.4773    3.8572    3.1796 C.ar      1 <0>         0.2172
     12 O2         -4.8645    4.0700    4.3163 O.3       1 <0>        -0.1703
     13 N1         -3.3123    3.2080    2.9519 N.ar      1 <0>        -0.2974
     14 H1         -5.7373    4.5570    4.2854 H         1 <0>         0.2741
     15 C11        -2.9268    2.9957    1.6634 C.ar      1 <0>         0.1893
     16 N2         -3.6784    3.4174    0.6613 N.ar      1 <0>        -0.2178
     17 N3         -4.7932    4.0262    0.8546 N.ar      1 <0>         0.0765
     18 N4         -1.7533    2.3415    1.4043 N.pl3     1 <0>        -0.3156
     19 C12        -1.3336    2.1108    0.0198 C.3       1 <0>         0.0518
     20 C13        -0.0177    1.3765    0.0096 C.ar      1 <0>        -0.1143
     21 C14         1.1685    2.0866    0.0019 C.ar      1 <0>        -0.1052
     22 C15         2.3780    1.4175   -0.0124 C.ar      1 <0>        -0.1171
     23 C16         2.4042    0.0323   -0.0206 C.ar      1 <0>         0.0150
     24 C17         1.2093   -0.6830   -0.0129 C.ar      1 <0>         0.0006
     25 C18         0.0008   -0.0058    0.0022 C.ar      1 <0>        -0.0944
     26 O3          1.4992   -2.0168   -0.0231 O.3       1 <0>        -0.2057
     27 C19         2.8716   -2.1087   -0.4492 C.3       1 <0>         0.1068
     28 O4          3.4428   -0.8532   -0.0356 O.3       1 <0>        -0.2063
     29 H2         -8.7354    8.2939   -2.6693 H         1 <0>         0.0660
     30 H3         -7.3462    7.5283   -3.4768 H         1 <0>         0.0699
     31 H4         -8.9240    7.5999   -4.2975 H         1 <0>         0.1067
     32 H5         -9.2146    4.0267   -1.4078 H         1 <0>         0.1431
     33 H6         -8.2343    3.4892    0.7850 H         1 <0>         0.1321
     34 H7         -6.1820    7.2282    0.7923 H         1 <0>         0.1281
     35 H8         -7.1495    7.7684   -1.4057 H         1 <0>         0.1342
     36 H9         -7.2330    4.3547    2.8181 H         1 <0>         0.0877
     37 H10        -6.3730    5.9130    2.8192 H         1 <0>         0.0867
     38 H11        -1.1994    2.0305    2.1373 H         1 <0>         0.2524
     39 H12        -1.2196    3.0677   -0.4896 H         1 <0>         0.1043
     40 H13        -2.0870    1.5134   -0.4935 H         1 <0>         0.1048
     41 H14         1.1501    3.1665    0.0073 H         1 <0>         0.1453
     42 H15         3.3032    1.9748   -0.0184 H         1 <0>         0.1470
     43 H16        -0.9274   -0.5580    0.0086 H         1 <0>         0.1500
     44 H17         2.9299   -2.2178   -1.5321 H         1 <0>         0.0902
     45 H18         3.3723   -2.9395    0.0480 H         1 <0>         0.1324
@<TRIPOS>BOND
     1    1    2 1
     2    1   29 1
     3    1   30 1
     4    1   31 1
     5    2    3 1
     6    3    8 ar
     7    3    4 ar
     8    4    5 ar
     9    4   32 1
    10    5    6 ar
    11    5   33 1
    12    6    7 ar
    13    6    9 1
    14    7    8 ar
    15    7   34 1
    16    8   35 1
    17    9   10 1
    18    9   36 1
    19    9   37 1
    20   10   11 ar
    21   10   17 ar
    22   11   13 ar
    23   11   12 1
    24   12   14 1
    25   13   15 ar
    26   15   18 1
    27   15   16 ar
    28   16   17 ar
    29   18   19 1
    30   18   38 1
    31   19   20 1
    32   19   39 1
    33   19   40 1
    34   20   25 ar
    35   20   21 ar
    36   21   22 ar
    37   21   41 1
    38   22   23 ar
    39   22   42 1
    40   23   28 1
    41   23   24 ar
    42   24   25 ar
    43   24   26 1
    44   25   43 1
    45   26   27 1
    46   27   28 1
    47   27   44 1
    48   27   45 1
@<TRIPOS>MOLECULE
ZINC04317740
   43    45     0     0     0
SMALL
USER_CHARGES

@<TRIPOS>ATOM
      1 C1          2.5503   -0.1236    0.0600 C.3       1 <0>        -0.0452
      2 N1          2.4800    1.3396    0.0403 N.pl3     1 <0>        -0.3481
      3 C2          3.7121    2.1319    0.0197 C.3       1 <0>        -0.0450
      4 C3          1.2355    1.9807    0.0412 C.ar      1 <0>         0.0869
      5 C4          0.0676    1.2297    0.0608 C.ar      1 <0>        -0.1644
      6 C5         -1.1600    1.8620    0.0554 C.ar      1 <0>        -0.1415
      7 C6         -1.2266    3.2490    0.0421 C.ar      1 <0>         0.0581
      8 C7         -0.0587    4.0000    0.0226 C.ar      1 <0>        -0.1478
      9 C8          1.1689    3.3676    0.0221 C.ar      1 <0>        -0.1670
     10 N2         -2.4712    3.8901    0.0431 N.pl3     1 <0>        -0.3727
     11 C9         -3.7033    3.0978    0.0637 C.3       1 <0>         0.0148
     12 H1         -3.5617    2.1567   -0.4677 H         1 <0>         0.1382
     13 C10        -4.8723    3.8962   -0.5483 C.3       1 <0>        -0.2167
     14 C11        -5.8583    4.0129    0.5936 C.2       1 <0>         0.3113
     15 O1         -6.9310    4.5752    0.5404 O.2       1 <0>        -0.2955
     16 N3         -5.3581    3.3971    1.6720 N.am      1 <0>        -0.2730
     17 C12        -4.1516    2.8473    1.4870 C.2       1 <0>         0.2861
     18 O2         -3.5186    2.2439    2.3267 O.2       1 <0>        -0.2804
     19 C13        -6.0421    3.3336    2.8958 C.ar      1 <0>         0.0279
     20 C14        -6.2468    4.4890    3.6374 C.ar      1 <0>        -0.0931
     21 C15        -6.9237    4.4268    4.8394 C.ar      1 <0>        -0.1474
     22 C16        -7.3902    3.2082    5.3107 C.ar      1 <0>         0.0809
     23 C17        -7.1816    2.0525    4.5721 C.ar      1 <0>        -0.1475
     24 C18        -6.5091    2.1146    3.3677 C.ar      1 <0>        -0.0937
     25 O3         -8.0524    3.1466    6.4964 O.3       1 <0>        -0.2912
     26 H2          2.5597   -0.5007   -0.9627 H         1 <0>         0.0614
     27 H3          3.4607   -0.4368    0.5711 H         1 <0>         0.0751
     28 H4          1.6828   -0.5220    0.5862 H         1 <0>         0.0836
     29 H5          4.0258    2.3426    1.0422 H         1 <0>         0.0631
     30 H6          4.4951    1.5728   -0.4926 H         1 <0>         0.0746
     31 H7          3.5323    3.0698   -0.5057 H         1 <0>         0.0815
     32 H8          0.1194    0.1511    0.0757 H         1 <0>         0.1335
     33 H9         -2.0683    1.2779    0.0657 H         1 <0>         0.1298
     34 H10        -0.1105    5.0786    0.0081 H         1 <0>         0.1262
     35 H11         2.0772    3.9517    0.0066 H         1 <0>         0.1329
     36 H12        -2.5177    4.8589    0.0301 H         1 <0>         0.2321
     37 H13        -4.5372    4.8829   -0.8681 H         1 <0>         0.1326
     38 H14        -5.3141    3.3510   -1.3824 H         1 <0>         0.1338
     39 H15        -5.8798    5.4370    3.2728 H         1 <0>         0.1422
     40 H16        -7.0860    5.3261    5.4149 H         1 <0>         0.1458
     41 H17        -7.5449    1.1041    4.9393 H         1 <0>         0.1457
     42 H18        -6.3467    1.2148    2.7928 H         1 <0>         0.1419
     43 H19        -7.4783    2.9981    7.2603 H         1 <0>         0.2303
@<TRIPOS>BOND
     1    1    2 1
     2    1   26 1
     3    1   27 1
     4    1   28 1
     5    2    3 1
     6    2    4 1
     7    3   29 1
     8    3   30 1
     9    3   31 1
    10    4    9 ar
    11    4    5 ar
    12    5    6 ar
    13    5   32 1
    14    6    7 ar
    15    6   33 1
    16    7    8 ar
    17    7   10 1
    18    8    9 ar
    19    8   34 1
    20    9   35 1
    21   10   11 1
    22   10   36 1
    23   11   12 1
    24   11   17 1
    25   11   13 1
    26   13   14 1
    27   13   37 1
    28   13   38 1
    29   14   15 2
    30   14   16 am
    31   16   17 am
    32   16   19 1
    33   17   18 2
    34   19   24 ar
    35   19   20 ar
    36   20   21 ar
    37   20   39 1
    38   21   22 ar
    39   21   40 1
    40   22   23 ar
    41   22   25 1
    42   23   24 ar
    43   23   41 1
    44   24   42 1
    45   25   43 1
@<TRIPOS>MOLECULE
ZINC04317740
   44    46     0     0     0
SMALL
USER_CHARGES

@<TRIPOS>ATOM
      1 C1          2.5503   -0.1236    0.0600 C.3       1 <0>        -0.0652
      2 N1          2.4800    1.3396    0.0403 N.pl3     1 <0>        -0.2982
      3 C2          3.7121    2.1319    0.0197 C.3       1 <0>        -0.0652
      4 C3          1.2355    1.9807    0.0412 C.ar      1 <0>         0.1743
      5 C4          0.0676    1.2297    0.0608 C.ar      1 <0>        -0.1908
      6 C5         -1.1600    1.8620    0.0554 C.ar      1 <0>        -0.0272
      7 C6         -1.2266    3.2490    0.0421 C.ar      1 <0>        -0.2446
      8 C7         -0.0587    4.0000    0.0226 C.ar      1 <0>        -0.0564
      9 C8          1.1689    3.3676    0.0221 C.ar      1 <0>        -0.1866
     10 C9         -3.7033    3.0978    0.0637 C.3       1 <0>        -0.1259
     11 H1         -3.5617    2.1567   -0.4677 H         1 <0>         0.1900
     12 C10        -4.8723    3.8962   -0.5483 C.3       1 <0>        -0.2286
     13 C11        -5.8583    4.0129    0.5936 C.2       1 <0>         0.3020
     14 O1         -6.9310    4.5752    0.5404 O.2       1 <0>        -0.2228
     15 N2         -5.3581    3.3971    1.6720 N.am      1 <0>        -0.2486
     16 C12        -4.1516    2.8473    1.4870 C.2       1 <0>         0.2867
     17 O2         -3.5186    2.2439    2.3267 O.2       1 <0>        -0.2401
     18 C13        -6.0421    3.3336    2.8958 C.ar      1 <0>        -0.0132
     19 C14        -6.2468    4.4890    3.6374 C.ar      1 <0>        -0.0886
     20 C15        -6.9237    4.4268    4.8394 C.ar      1 <0>        -0.1413
     21 C16        -7.3902    3.2082    5.3107 C.ar      1 <0>         0.1107
     22 C17        -7.1816    2.0525    4.5721 C.ar      1 <0>        -0.1410
     23 C18        -6.5091    2.1146    3.3677 C.ar      1 <0>        -0.0842
     24 O3         -8.0524    3.1466    6.4964 O.3       1 <0>        -0.2814
     25 H2          2.5597   -0.5007   -0.9627 H         1 <0>         0.0873
     26 H3          3.4607   -0.4368    0.5711 H         1 <0>         0.1053
     27 H4          1.6828   -0.5220    0.5862 H         1 <0>         0.0907
     28 H5          4.0258    2.3426    1.0422 H         1 <0>         0.0887
     29 H6          4.4951    1.5728   -0.4926 H         1 <0>         0.1050
     30 H7          3.5323    3.0698   -0.5057 H         1 <0>         0.0889
     31 H8          0.1194    0.1511    0.0757 H         1 <0>         0.1668
     32 H9         -2.0683    1.2779    0.0657 H         1 <0>         0.1437
     33 H10        -0.1105    5.0786    0.0081 H         1 <0>         0.1403
     34 H11         2.0772    3.9517    0.0066 H         1 <0>         0.1661
     35 H12        -4.5372    4.8829   -0.8681 H         1 <0>         0.1319
     36 H13        -5.3141    3.3510   -1.3824 H         1 <0>         0.1689
     37 H14        -5.8798    5.4370    3.2728 H         1 <0>         0.1375
     38 H15        -7.0860    5.3261    5.4149 H         1 <0>         0.1600
     39 H16        -7.5449    1.1041    4.9393 H         1 <0>         0.1607
     40 H17        -6.3467    1.2148    2.7928 H         1 <0>         0.1426
     41 H18        -7.4783    2.9981    7.2603 H         1 <0>         0.2436
     42 N3         -2.4739    3.9639    0.0421 N.4       1 <0>         0.0606
     43 H19        -2.5069    4.5445   -0.8041 H         1 <0>         0.2476
     44 H20        -2.4937    4.5675    0.8724 H         1 <0>         0.2501
@<TRIPOS>BOND
     1    1    2 1
     2    1   25 1
     3    1   26 1
     4    1   27 1
     5    2    3 1
     6    2    4 1
     7    3   28 1
     8    3   29 1
     9    3   30 1
    10    4    9 ar
    11    4    5 ar
    12    5    6 ar
    13    5   31 1
    14    6    7 ar
    15    6   32 1
    16    7    8 ar
    17    7   42 1
    18    8    9 ar
    19    8   33 1
    20    9   34 1
    21   10   11 1
    22   10   16 1
    23   10   12 1
    24   10   42 1
    25   12   13 1
    26   12   35 1
    27   12   36 1
    28   13   14 2
    29   13   15 am
    30   15   16 am
    31   15   18 1
    32   16   17 2
    33   18   23 ar
    34   18   19 ar
    35   19   20 ar
    36   19   37 1
    37   20   21 ar
    38   20   38 1
    39   21   22 ar
    40   21   24 1
    41   22   23 ar
    42   22   39 1
    43   23   40 1
    44   24   41 1
    45   42   43 1
    46   42   44 1
@<TRIPOS>MOLECULE
ZINC04317740
   45    47     0     0     0
SMALL
USER_CHARGES

@<TRIPOS>ATOM
      1 C1          2.5503   -0.1236    0.0600 C.3       1 <0>        -0.1638
      2 C2          3.7121    2.1319    0.0197 C.3       1 <0>        -0.1645
      3 C3          1.2355    1.9807    0.0412 C.ar      1 <0>        -0.0696
      4 C4          0.0676    1.2297    0.0608 C.ar      1 <0>        -0.0827
      5 C5         -1.1600    1.8620    0.0554 C.ar      1 <0>        -0.0497
      6 C6         -1.2266    3.2490    0.0421 C.ar      1 <0>        -0.0897
      7 C7         -0.0587    4.0000    0.0226 C.ar      1 <0>        -0.0821
      8 C8          1.1689    3.3676    0.0221 C.ar      1 <0>        -0.0826
      9 C9         -3.7033    3.0978    0.0637 C.3       1 <0>        -0.1401
     10 H1         -3.5617    2.1567   -0.4677 H         1 <0>         0.1847
     11 C10        -4.8723    3.8962   -0.5483 C.3       1 <0>        -0.2261
     12 C11        -5.8583    4.0129    0.5936 C.2       1 <0>         0.2969
     13 O1         -6.9310    4.5752    0.5404 O.2       1 <0>        -0.1875
     14 N1         -5.3581    3.3971    1.6720 N.am      1 <0>        -0.2303
     15 C12        -4.1516    2.8473    1.4870 C.2       1 <0>         0.2843
     16 O2         -3.5186    2.2439    2.3267 O.2       1 <0>        -0.2549
     17 C13        -6.0421    3.3336    2.8958 C.ar      1 <0>        -0.0346
     18 C14        -6.2468    4.4890    3.6374 C.ar      1 <0>        -0.0867
     19 C15        -6.9237    4.4268    4.8394 C.ar      1 <0>        -0.1379
     20 C16        -7.3902    3.2082    5.3107 C.ar      1 <0>         0.1253
     21 C17        -7.1816    2.0525    4.5721 C.ar      1 <0>        -0.1385
     22 C18        -6.5091    2.1146    3.3677 C.ar      1 <0>        -0.0820
     23 O3         -8.0524    3.1466    6.4964 O.3       1 <0>        -0.2748
     24 H2          2.5597   -0.5007   -0.9627 H         1 <0>         0.1155
     25 H3          3.4607   -0.4368    0.5711 H         1 <0>         0.1773
     26 H4          1.6828   -0.5220    0.5862 H         1 <0>         0.1580
     27 H5          4.0258    2.3426    1.0422 H         1 <0>         0.1853
     28 H6          4.4951    1.5728   -0.4926 H         1 <0>         0.1450
     29 H7          3.5323    3.0698   -0.5057 H         1 <0>         0.1207
     30 H8          0.1194    0.1511    0.0757 H         1 <0>         0.1853
     31 H9         -2.0683    1.2779    0.0657 H         1 <0>         0.1872
     32 H10        -0.1105    5.0786    0.0081 H         1 <0>         0.1815
     33 H11         2.0772    3.9517    0.0066 H         1 <0>         0.1854
     34 H12        -4.5372    4.8829   -0.8681 H         1 <0>         0.1348
     35 H13        -5.3141    3.3510   -1.3824 H         1 <0>         0.1790
     36 H14        -5.8798    5.4370    3.2728 H         1 <0>         0.1360
     37 H15        -7.0860    5.3261    5.4149 H         1 <0>         0.1675
     38 H16        -7.5449    1.1041    4.9393 H         1 <0>         0.1675
     39 H17        -6.3467    1.2148    2.7928 H         1 <0>         0.1404
     40 H18        -7.4783    2.9981    7.2603 H         1 <0>         0.2497
     41 N2          2.4737    1.3364   -0.3202 N.4       1 <0>         0.0335
     42 H19         2.4533    1.3286   -1.3468 H         1 <0>         0.2632
     43 N3         -2.4739    3.9639    0.0421 N.4       1 <0>         0.0293
     44 H20        -2.5069    4.5445   -0.8041 H         1 <0>         0.2692
     45 H21        -2.4937    4.5675    0.8724 H         1 <0>         0.2758
@<TRIPOS>BOND
     1    1   24 1
     2    1   25 1
     3    1   26 1
     4    1   41 1
     5    2   27 1
     6    2   28 1
     7    2   29 1
     8    2   41 1
     9    3    8 ar
    10    3    4 ar
    11    3   41 1
    12    4    5 ar
    13    4   30 1
    14    5    6 ar
    15    5   31 1
    16    6    7 ar
    17    6   43 1
    18    7    8 ar
    19    7   32 1
    20    8   33 1
    21    9   10 1
    22    9   15 1
    23    9   11 1
    24    9   43 1
    25   11   12 1
    26   11   34 1
    27   11   35 1
    28   12   13 2
    29   12   14 am
    30   14   15 am
    31   14   17 1
    32   15   16 2
    33   17   22 ar
    34   17   18 ar
    35   18   19 ar
    36   18   36 1
    37   19   20 ar
    38   19   37 1
    39   20   21 ar
    40   20   23 1
    41   21   22 ar
    42   21   38 1
    43   22   39 1
    44   23   40 1
    45   41   42 1
    46   43   44 1
    47   43   45 1
@<TRIPOS>MOLECULE
ZINC04317740
   44    46     0     0     0
SMALL
USER_CHARGES

@<TRIPOS>ATOM
      1 C1          2.5503   -0.1236    0.0600 C.3       1 <0>        -0.1609
      2 C2          3.7121    2.1319    0.0197 C.3       1 <0>        -0.1617
      3 C3          1.2355    1.9807    0.0412 C.ar      1 <0>        -0.2104
      4 C4          0.0676    1.2297    0.0608 C.ar      1 <0>        -0.0571
      5 C5         -1.1600    1.8620    0.0554 C.ar      1 <0>        -0.1695
      6 C6         -1.2266    3.2490    0.0421 C.ar      1 <0>         0.1714
      7 C7         -0.0587    4.0000    0.0226 C.ar      1 <0>        -0.1785
      8 C8          1.1689    3.3676    0.0221 C.ar      1 <0>        -0.0585
      9 N1         -2.4712    3.8901    0.0431 N.pl3     1 <0>        -0.3329
     10 C9         -3.7033    3.0978    0.0637 C.3       1 <0>        -0.0109
     11 H1         -3.5617    2.1567   -0.4677 H         1 <0>         0.1385
     12 C10        -4.8723    3.8962   -0.5483 C.3       1 <0>        -0.2143
     13 C11        -5.8583    4.0129    0.5936 C.2       1 <0>         0.3072
     14 O1         -6.9310    4.5752    0.5404 O.2       1 <0>        -0.2599
     15 N2         -5.3581    3.3971    1.6720 N.am      1 <0>        -0.2601
     16 C12        -4.1516    2.8473    1.4870 C.2       1 <0>         0.2928
     17 O2         -3.5186    2.2439    2.3267 O.2       1 <0>        -0.2878
     18 C13        -6.0421    3.3336    2.8958 C.ar      1 <0>         0.0079
     19 C14        -6.2468    4.4890    3.6374 C.ar      1 <0>        -0.0906
     20 C15        -6.9237    4.4268    4.8394 C.ar      1 <0>        -0.1441
     21 C16        -7.3902    3.2082    5.3107 C.ar      1 <0>         0.0959
     22 C17        -7.1816    2.0525    4.5721 C.ar      1 <0>        -0.1450
     23 C18        -6.5091    2.1146    3.3677 C.ar      1 <0>        -0.0914
     24 O3         -8.0524    3.1466    6.4964 O.3       1 <0>        -0.2850
     25 H2          2.5597   -0.5007   -0.9627 H         1 <0>         0.1002
     26 H3          3.4607   -0.4368    0.5711 H         1 <0>         0.1524
     27 H4          1.6828   -0.5220    0.5862 H         1 <0>         0.1575
     28 H5          4.0258    2.3426    1.0422 H         1 <0>         0.1699
     29 H6          4.4951    1.5728   -0.4926 H         1 <0>         0.1179
     30 H7          3.5323    3.0698   -0.5057 H         1 <0>         0.1223
     31 H8          0.1194    0.1511    0.0757 H         1 <0>         0.1462
     32 H9         -2.0683    1.2779    0.0657 H         1 <0>         0.1677
     33 H10        -0.1105    5.0786    0.0081 H         1 <0>         0.1630
     34 H11         2.0772    3.9517    0.0066 H         1 <0>         0.1465
     35 H12        -2.5177    4.8589    0.0301 H         1 <0>         0.2521
     36 H13        -4.5372    4.8829   -0.8681 H         1 <0>         0.1353
     37 H14        -5.3141    3.3510   -1.3824 H         1 <0>         0.1454
     38 H15        -5.8798    5.4370    3.2728 H         1 <0>         0.1407
     39 H16        -7.0860    5.3261    5.4149 H         1 <0>         0.1536
     40 H17        -7.5449    1.1041    4.9393 H         1 <0>         0.1527
     41 H18        -6.3467    1.2148    2.7928 H         1 <0>         0.1395
     42 H19        -7.4783    2.9981    7.2603 H         1 <0>         0.2366
     43 N3          2.4737    1.3364   -0.3202 N.4       1 <0>         0.0631
     44 H20         2.4533    1.3286   -1.3468 H         1 <0>         0.2423
@<TRIPOS>BOND
     1    1   25 1
     2    1   26 1
     3    1   27 1
     4    1   43 1
     5    2   28 1
     6    2   29 1
     7    2   30 1
     8    2   43 1
     9    3    8 ar
    10    3    4 ar
    11    3   43 1
    12    4    5 ar
    13    4   31 1
    14    5    6 ar
    15    5   32 1
    16    6    7 ar
    17    6    9 1
    18    7    8 ar
    19    7   33 1
    20    8   34 1
    21    9   10 1
    22    9   35 1
    23   10   11 1
    24   10   16 1
    25   10   12 1
    26   12   13 1
    27   12   36 1
    28   12   37 1
    29   13   14 2
    30   13   15 am
    31   15   16 am
    32   15   18 1
    33   16   17 2
    34   18   23 ar
    35   18   19 ar
    36   19   20 ar
    37   19   38 1
    38   20   21 ar
    39   20   39 1
    40   21   22 ar
    41   21   24 1
    42   22   23 ar
    43   22   40 1
    44   23   41 1
    45   24   42 1
    46   43   44 1
@<TRIPOS>MOLECULE
ZINC04322035
   41    44     0     0     0
SMALL
USER_CHARGES

@<TRIPOS>ATOM
      1 C1          7.0936    3.1625   -0.0523 C.3       1 <0>        -0.1702
      2 C2          5.5907    3.2736   -0.0370 C.ar      1 <0>        -0.1014
      3 C3          4.9906    4.5232   -0.0256 C.ar      1 <0>        -0.0915
      4 C4          3.6172    4.6411   -0.0106 C.ar      1 <0>        -0.1479
      5 C5          2.8200    3.5012   -0.0079 C.ar      1 <0>         0.0425
      6 C6          3.4289    2.2369   -0.0195 C.ar      1 <0>        -0.0558
      7 C7          4.8179    2.1324   -0.0341 C.ar      1 <0>        -0.0597
      8 C8          2.3359    1.2495   -0.0135 C.ar      1 <0>        -0.1799
      9 C9          1.1345    1.9883    0.0019 C.ar      1 <0>         0.1505
     10 N1          1.4459    3.3254    0.0046 N.pl3     1 <0>        -0.2115
     11 H1          0.7957    4.0452    0.0144 H         1 <0>         0.2534
     12 N2         -0.0159    1.3223    0.0093 N.ar      1 <0>        -0.2851
     13 C10         0.0021   -0.0041    0.0020 C.ar      1 <0>         0.2029
     14 N3          1.1471   -0.6783   -0.0121 N.ar      1 <0>        -0.1299
     15 N4          2.2860   -0.0745   -0.0197 N.ar      1 <0>         0.0592
     16 N5         -1.1951   -0.6993    0.0097 N.pl3     1 <0>        -0.2703
     17 N6         -1.1916   -2.1003    0.0022 N.2       1 <0>         0.0354
     18 C11        -2.3142   -2.7522    0.0094 C.2       1 <0>        -0.0689
     19 C12        -3.6211   -2.0020    0.0259 C.3       1 <0>        -0.2165
     20 C13        -2.3106   -4.2261    0.0014 C.ar      1 <0>        -0.0646
     21 C14        -3.5160   -4.9313    0.0091 C.ar      1 <0>        -0.1000
     22 C15        -3.5056   -6.3104    0.0017 C.ar      1 <0>        -0.1459
     23 C16        -2.3049   -6.9992   -0.0139 C.ar      1 <0>        -0.1026
     24 C17        -1.1052   -6.3127   -0.0217 C.ar      1 <0>        -0.1625
     25 C18        -1.0975   -4.9276   -0.0197 C.ar      1 <0>         0.1129
     26 O1          0.0808   -4.2521   -0.0335 O.3       1 <0>        -0.2640
     27 H2          7.4458    3.1400   -1.0835 H         1 <0>         0.0873
     28 H3          7.5265    4.0212    0.4608 H         1 <0>         0.0807
     29 H4          7.3953    2.2461    0.4549 H         1 <0>         0.0851
     30 H5          5.6043    5.4119   -0.0280 H         1 <0>         0.1368
     31 H6          3.1598    5.6194   -0.0014 H         1 <0>         0.1325
     32 H7          5.2878    1.1600   -0.0434 H         1 <0>         0.1492
     33 H8         -2.0363   -0.2164    0.0203 H         1 <0>         0.2361
     34 H9         -3.9460   -1.8156   -0.9977 H         1 <0>         0.0999
     35 H10        -4.3744   -2.5958    0.5437 H         1 <0>         0.0972
     36 H11        -3.4882   -1.0520    0.5436 H         1 <0>         0.0820
     37 H12        -4.4549   -4.3976    0.0213 H         1 <0>         0.1335
     38 H13        -4.4381   -6.8553    0.0077 H         1 <0>         0.1325
     39 H14        -2.3055   -8.0792   -0.0204 H         1 <0>         0.1328
     40 H15        -0.1725   -6.8570   -0.0338 H         1 <0>         0.1445
     41 H16         0.4349   -4.0609    0.8458 H         1 <0>         0.2415
@<TRIPOS>BOND
     1    1    2 1
     2    1   27 1
     3    1   28 1
     4    1   29 1
     5    2    7 ar
     6    2    3 ar
     7    3    4 ar
     8    3   30 1
     9    4    5 ar
    10    4   31 1
    11    5   10 1
    12    5    6 ar
    13    6    7 ar
    14    6    8 1
    15    7   32 1
    16    8   15 ar
    17    8    9 ar
    18    9   10 1
    19    9   12 ar
    20   10   11 1
    21   12   13 ar
    22   13   14 ar
    23   13   16 1
    24   14   15 ar
    25   16   17 1
    26   16   33 1
    27   17   18 2
    28   18   19 1
    29   18   20 1
    30   19   34 1
    31   19   35 1
    32   19   36 1
    33   20   25 ar
    34   20   21 ar
    35   21   22 ar
    36   21   37 1
    37   22   23 ar
    38   22   38 1
    39   23   24 ar
    40   23   39 1
    41   24   25 ar
    42   24   40 1
    43   25   26 1
    44   26   41 1
@<TRIPOS>MOLECULE
ZINC04322748
   43    46     0     0     0
SMALL
USER_CHARGES

@<TRIPOS>ATOM
      1 C1         -1.9237    0.8399    4.5097 C.3       1 <0>        -0.1731
      2 C2         -0.5836    0.3659    4.0091 C.ar      1 <0>        -0.0960
      3 C3          0.5275    1.1707    4.1478 C.ar      1 <0>        -0.0924
      4 C4          1.7647    0.7495    3.6867 C.ar      1 <0>        -0.1515
      5 C5          1.8979   -0.4827    3.0827 C.ar      1 <0>        -0.0625
      6 C6          0.7840   -1.3056    2.9363 C.ar      1 <0>        -0.0590
      7 C7         -0.4697   -0.8802    3.4027 C.ar      1 <0>         0.0510
      8 N1         -1.3965   -1.8749    3.1361 N.pl3     1 <0>        -0.2072
      9 H1         -2.3392   -1.8277    3.3598 H         1 <0>         0.2565
     10 C8         -0.7919   -2.9372    2.5108 C.ar      1 <0>         0.1513
     11 C9          0.5788   -2.6435    2.3552 C.ar      1 <0>        -0.1724
     12 N2          1.3724   -3.5299    1.7721 N.ar      1 <0>         0.0589
     13 N3          0.8918   -4.6497    1.3517 N.ar      1 <0>        -0.1309
     14 C10        -0.3959   -4.9487    1.4866 C.ar      1 <0>         0.1923
     15 N4         -1.2423   -4.1045    2.0617 N.ar      1 <0>        -0.2735
     16 N5         -0.8631   -6.1649    1.0184 N.pl3     1 <0>        -0.2777
     17 N6         -0.0103   -7.0136    0.3006 N.2       1 <0>         0.0370
     18 C11        -0.4809   -8.0886   -0.2545 C.2       1 <0>        -0.1114
     19 C12        -1.9142   -8.1801   -0.5855 C.ar      1 <0>        -0.1310
     20 C13        -2.6825   -7.0200   -0.7062 C.ar      1 <0>        -0.0495
     21 C14        -4.0232   -7.1126   -1.0161 C.ar      1 <0>        -0.1470
     22 C15        -4.6111   -8.3510   -1.2086 C.ar      1 <0>        -0.0230
     23 C16        -3.8614   -9.5065   -1.0920 C.ar      1 <0>        -0.2288
     24 C17        -2.5125   -9.4314   -0.7865 C.ar      1 <0>         0.1533
     25 O1         -1.7737  -10.5659   -0.6777 O.3       1 <0>        -0.1977
     26 C18        -2.4217  -11.7962   -1.0073 C.3       1 <0>        -0.0682
     27 N7         -4.8369   -5.8826   -1.1438 N.pl3     1 <0>         0.5523
     28 O2         -4.3221   -4.7916   -0.9753 O.2       1 <0>        -0.3496
     29 O3         -6.0211   -5.9614   -1.4174 O.3       1 <0>        -0.3579
     30 H2         -2.0564    0.5264    5.5451 H         1 <0>         0.0876
     31 H3         -1.9697    1.9273    4.4505 H         1 <0>         0.0888
     32 H4         -2.7142    0.4088    3.8954 H         1 <0>         0.0757
     33 H5          0.4328    2.1377    4.6193 H         1 <0>         0.1371
     34 H6          2.6278    1.3885    3.8013 H         1 <0>         0.1372
     35 H7          2.8631   -0.8089    2.7246 H         1 <0>         0.1481
     36 H8         -1.7810   -6.4294    1.1872 H         1 <0>         0.2452
     37 H9          0.1778   -8.9159   -0.4737 H         1 <0>         0.2020
     38 H10        -2.2276   -6.0520   -0.5567 H         1 <0>         0.1894
     39 H11        -5.6615   -8.4148   -1.4518 H         1 <0>         0.1687
     40 H12        -4.3271  -10.4690   -1.2436 H         1 <0>         0.1547
     41 H13        -3.2097  -11.9976   -0.2816 H         1 <0>         0.0760
     42 H14        -2.8562  -11.7223   -2.0042 H         1 <0>         0.0764
     43 H15        -1.6936  -12.6070   -0.9874 H         1 <0>         0.1212
@<TRIPOS>BOND
     1    1    2 1
     2    1   30 1
     3    1   31 1
     4    1   32 1
     5    2    7 ar
     6    2    3 ar
     7    3    4 ar
     8    3   33 1
     9    4    5 ar
    10    4   34 1
    11    5    6 ar
    12    5   35 1
    13    6   11 1
    14    6    7 ar
    15    7    8 1
    16    8    9 1
    17    8   10 1
    18   10   15 ar
    19   10   11 ar
    20   11   12 ar
    21   12   13 ar
    22   13   14 ar
    23   14   15 ar
    24   14   16 1
    25   16   17 1
    26   16   36 1
    27   17   18 2
    28   18   19 1
    29   18   37 1
    30   19   24 ar
    31   19   20 ar
    32   20   21 ar
    33   20   38 1
    34   21   22 ar
    35   21   27 1
    36   22   23 ar
    37   22   39 1
    38   23   24 ar
    39   23   40 1
    40   24   25 1
    41   25   26 1
    42   26   41 1
    43   26   42 1
    44   26   43 1
    45   27   28 2
    46   27   29 1
@<TRIPOS>MOLECULE
ZINC04333542
   39    41     0     0     0
SMALL
USER_CHARGES

@<TRIPOS>ATOM
      1 C1         -3.3750   -3.7453    4.8769 C.3       1 <0>        -0.1726
      2 C2         -3.6203   -3.8757    3.3957 C.ar      1 <0>        -0.0617
      3 C3         -4.7446   -4.5410    2.9384 C.ar      1 <0>        -0.1280
      4 C4         -4.9776   -4.6656    1.5827 C.ar      1 <0>        -0.0906
      5 C5         -4.0822   -4.1227    0.6746 C.ar      1 <0>         0.0021
      6 C6         -2.9463   -3.4581    1.1363 C.ar      1 <0>        -0.0139
      7 C7         -2.7223   -3.3315    2.4983 C.ar      1 <0>        -0.1237
      8 N1         -2.2513   -3.0252    0.0073 N.am      1 <0>        -0.2879
      9 C8         -2.9462   -3.4277   -1.0751 C.2       1 <0>         0.3910
     10 O1         -2.6263   -3.2242   -2.2305 O.2       1 <0>        -0.3269
     11 O2         -4.0465   -4.0871   -0.6801 O.3       1 <0>        -0.1310
     12 C9         -0.9927   -2.2755   -0.0007 C.3       1 <0>         0.0248
     13 C10        -1.2926   -0.7753    0.0102 C.3       1 <0>        -0.1257
     14 C11         0.0021   -0.0041    0.0020 C.2       1 <0>         0.0826
     15 N2          1.1302   -0.6351   -0.0121 N.2       1 <0>        -0.1693
     16 O3          2.1766   -0.0118   -0.0188 O.3       1 <0>        -0.1596
     17 C12         3.3169   -0.7305   -0.0335 C.2       1 <0>         0.3930
     18 O4          3.2697   -1.9461   -0.0396 O.2       1 <0>        -0.2994
     19 C13         4.6123   -0.0481   -0.0422 C.2       1 <0>        -0.3293
     20 C14         5.8876   -0.5932   -0.0517 C.2       1 <0>        -0.0846
     21 C15         6.9422    0.2847   -0.0631 C.2       1 <0>        -0.1988
     22 C16         6.6935    1.6209   -0.0529 C.2       1 <0>        -0.3194
     23 S1          4.9619    1.7014   -0.0356 S.3       1 <0>         0.4279
     24 N3         -0.0166    1.3714    0.0096 N.pl3     1 <0>        -0.4319
     25 H1         -2.7896   -4.5965    5.2246 H         1 <0>         0.0915
     26 H2         -2.8283   -2.8233    5.0748 H         1 <0>         0.0837
     27 H3         -4.3295   -3.7216    5.4026 H         1 <0>         0.0848
     28 H4         -5.4431   -4.9645    3.6450 H         1 <0>         0.1423
     29 H5         -5.8567   -5.1849    1.2307 H         1 <0>         0.1472
     30 H6         -1.8456   -2.8127    2.8569 H         1 <0>         0.1406
     31 H7         -0.4261   -2.5263   -0.8975 H         1 <0>         0.1407
     32 H8         -0.4091   -2.5358    0.8824 H         1 <0>         0.1194
     33 H9         -1.8592   -0.5245    0.9070 H         1 <0>         0.1038
     34 H10        -1.8762   -0.5150   -0.8728 H         1 <0>         0.1180
     35 H11         6.0438   -1.6619   -0.0532 H         1 <0>         0.1671
     36 H12         7.9580   -0.0818   -0.0747 H         1 <0>         0.1511
     37 H13         7.4029    2.4352   -0.0549 H         1 <0>         0.1913
     38 H14         0.8168    1.8678    0.0043 H         1 <0>         0.2332
     39 H15        -0.8631    1.8450    0.0162 H         1 <0>         0.2180
@<TRIPOS>BOND
     1    1    2 1
     2    1   25 1
     3    1   26 1
     4    1   27 1
     5    2    7 ar
     6    2    3 ar
     7    3    4 ar
     8    3   28 1
     9    4    5 ar
    10    4   29 1
    11    5   11 1
    12    5    6 ar
    13    6    7 ar
    14    6    8 1
    15    7   30 1
    16    8    9 am
    17    8   12 1
    18    9   10 2
    19    9   11 1
    20   12   13 1
    21   12   31 1
    22   12   32 1
    23   13   14 1
    24   13   33 1
    25   13   34 1
    26   14   15 2
    27   14   24 1
    28   15   16 1
    29   16   17 1
    30   17   18 2
    31   17   19 1
    32   19   23 1
    33   19   20 2
    34   20   21 1
    35   20   35 1
    36   21   22 2
    37   21   36 1
    38   22   23 1
    39   22   37 1
    40   24   38 1
    41   24   39 1
@<TRIPOS>MOLECULE
ZINC04335551
   45    47     0     0     0
SMALL
USER_CHARGES

@<TRIPOS>ATOM
      1 C1         -4.7584    0.7417    2.4136 C.3       1 <0>        -0.0694
      2 O1         -4.7747    2.1684    2.4941 O.3       1 <0>        -0.1989
      3 C2         -3.7366    2.8312    1.9175 C.ar      1 <0>         0.0962
      4 C3         -2.7229    2.1229    1.3009 C.ar      1 <0>        -0.2063
      5 C4         -1.6545    2.8066    0.7070 C.ar      1 <0>         0.0183
      6 C5         -1.6159    4.2062    0.7457 C.ar      1 <0>        -0.2347
      7 C6         -2.6364    4.9068    1.3598 C.ar      1 <0>         0.1028
      8 C7         -3.6969    4.2229    1.9490 C.ar      1 <0>         0.0098
      9 O2         -4.6965    4.9160    2.5564 O.3       1 <0>        -0.2086
     10 C8         -4.5347    5.2036    3.9468 C.3       1 <0>        -0.0571
     11 O3         -2.6028    6.2659    1.3930 O.3       1 <0>        -0.1981
     12 C9         -1.5414    6.9062    0.6820 C.3       1 <0>        -0.0648
     13 C10        -0.5758    2.0587    0.0517 C.2       1 <0>        -0.0548
     14 C11        -0.8297    0.8370   -0.4984 C.2       1 <0>        -0.0800
     15 C12         0.2735   -0.0001   -1.0175 C.2       1 <0>         0.3314
     16 O4          1.3838    0.4639   -1.1948 O.2       1 <0>        -0.3464
     17 N1          0.0067   -1.3020   -1.2842 N.am      1 <0>        -0.2831
     18 N2         -1.2932   -1.7793   -1.0576 N.pl3     1 <0>        -0.2843
     19 C13        -2.3312   -0.8977   -0.8572 C.2       1 <0>         0.1735
     20 N3         -2.1089    0.3648   -0.5860 N.2       1 <0>        -0.2249
     21 C14        -3.7229   -1.3844   -0.9502 C.ar      1 <0>        -0.0554
     22 C15        -3.9809   -2.7504   -1.0823 C.ar      1 <0>        -0.1163
     23 C16        -5.2829   -3.1983   -1.1647 C.ar      1 <0>        -0.1301
     24 C17        -6.3318   -2.2966   -1.1259 C.ar      1 <0>        -0.1076
     25 C18        -6.0832   -0.9412   -1.0000 C.ar      1 <0>        -0.1332
     26 C19        -4.7862   -0.4800   -0.9122 C.ar      1 <0>        -0.0760
     27 H1         -4.6779    0.4376    1.3700 H         1 <0>         0.0760
     28 H2         -3.9049    0.3561    2.9713 H         1 <0>         0.0665
     29 H3         -5.6799    0.3433    2.8381 H         1 <0>         0.1052
     30 H4         -2.7543    1.0436    1.2773 H         1 <0>         0.1611
     31 H5         -0.7918    4.7371    0.2925 H         1 <0>         0.1408
     32 H6         -5.4009    5.7593    4.3061 H         1 <0>         0.0986
     33 H7         -4.4456    4.2704    4.5029 H         1 <0>         0.0600
     34 H8         -3.6343    5.8005    4.0920 H         1 <0>         0.0608
     35 H9         -0.5838    6.5329    1.0452 H         1 <0>         0.0660
     36 H10        -1.6352    6.6907   -0.3824 H         1 <0>         0.0713
     37 H11        -1.5954    7.9832    0.8409 H         1 <0>         0.1079
     38 H12         0.4203    2.4738    0.0088 H         1 <0>         0.1582
     39 H13         0.7202   -1.9087   -1.6346 H         1 <0>         0.2683
     40 H14        -1.4611   -2.7346   -1.0423 H         1 <0>         0.2529
     41 H15        -3.1630   -3.4549   -1.1165 H         1 <0>         0.1214
     42 H16        -5.4840   -4.2547   -1.2635 H         1 <0>         0.1356
     43 H17        -7.3492   -2.6523   -1.1946 H         1 <0>         0.1357
     44 H18        -6.9065   -0.2429   -0.9707 H         1 <0>         0.1429
     45 H19        -4.5935    0.5782   -0.8139 H         1 <0>         0.1686
@<TRIPOS>BOND
     1    1    2 1
     2    1   27 1
     3    1   28 1
     4    1   29 1
     5    2    3 1
     6    3    8 ar
     7    3    4 ar
     8    4    5 ar
     9    4   30 1
    10    5    6 ar
    11    5   13 1
    12    6    7 ar
    13    6   31 1
    14    7    8 ar
    15    7   11 1
    16    8    9 1
    17    9   10 1
    18   10   32 1
    19   10   33 1
    20   10   34 1
    21   11   12 1
    22   12   35 1
    23   12   36 1
    24   12   37 1
    25   13   14 2
    26   13   38 1
    27   14   20 1
    28   14   15 1
    29   15   16 2
    30   15   17 am
    31   17   18 1
    32   17   39 1
    33   18   19 1
    34   18   40 1
    35   19   20 2
    36   19   21 1
    37   21   26 ar
    38   21   22 ar
    39   22   23 ar
    40   22   41 1
    41   23   24 ar
    42   23   42 1
    43   24   25 ar
    44   24   43 1
    45   25   26 ar
    46   25   44 1
    47   26   45 1
@<TRIPOS>MOLECULE
ZINC04337669
   43    45     0     0     0
SMALL
USER_CHARGES

@<TRIPOS>ATOM
      1 C1         -1.1389   -1.7494   -7.1372 C.3       1 <0>        -0.0762
      2 N1         -1.6419   -2.5913   -6.0489 N.am      1 <0>        -0.2481
      3 C2         -2.3985   -2.0332   -5.0546 C.2       1 <0>         0.1631
      4 C3         -2.8577   -2.8082   -4.0489 C.2       1 <0>        -0.9343
      5 C4         -2.5536   -4.1909   -4.0507 C.2       1 <0>         0.3820
      6 O1         -2.9609   -4.9110   -3.1570 O.2       1 <0>        -0.3271
      7 N2         -1.8092   -4.7033   -5.0515 N.am      1 <0>        -0.2942
      8 C5         -1.3599   -3.9067   -6.0391 C.2       1 <0>         0.4000
      9 O2         -0.6894   -4.3827   -6.9347 O.2       1 <0>        -0.3692
     10 C6         -1.4878   -6.1325   -5.0637 C.3       1 <0>        -0.0594
     11 S1         -3.8287   -2.1094   -2.7552 S.o2      1 <0>         2.7868
     12 O3         -4.8418   -3.0580   -2.4501 O.2       1 <0>        -0.8815
     13 O4         -4.1263   -0.7760   -3.1458 O.2       1 <0>        -0.9318
     14 N3         -2.8592   -2.0054   -1.4168 N.pl3     1 <0>        -0.8778
     15 C7         -1.6935   -1.1181   -1.4239 C.3       1 <0>        -0.0047
     16 C8         -1.1970   -0.9169    0.0093 C.3       1 <0>        -0.0915
     17 C9          0.0021   -0.0041    0.0020 C.2       1 <0>        -0.1696
     18 C10         1.2909   -0.3790   -0.0123 C.2       1 <0>        -0.0669
     19 N4          2.0983    0.7258   -0.0141 N.pl3     1 <0>        -0.1999
     20 H1          3.0681    0.7073   -0.0231 H         1 <0>         0.2414
     21 C11         1.3290    1.8677   -0.0006 C.ar      1 <0>         0.0058
     22 C12        -0.0178    1.4607    0.0101 C.ar      1 <0>        -0.0877
     23 C13        -1.0343    2.4172    0.0300 C.ar      1 <0>        -0.0781
     24 C14        -0.7155    3.7461    0.0298 C.ar      1 <0>        -0.1542
     25 C15         0.6114    4.1527    0.0193 C.ar      1 <0>        -0.1062
     26 C16         1.6305    3.2255    0.0042 C.ar      1 <0>        -0.1442
     27 H2         -0.5649   -2.3606   -7.8338 H         1 <0>         0.1375
     28 H3         -1.9785   -1.2927   -7.6612 H         1 <0>         0.0937
     29 H4         -0.4988   -0.9686   -6.7265 H         1 <0>         0.0909
     30 H5         -2.6239   -0.9771   -5.0721 H         1 <0>         0.1896
     31 H6         -2.2624   -6.6745   -5.6062 H         1 <0>         0.0924
     32 H7         -0.5264   -6.2846   -5.5544 H         1 <0>         0.1068
     33 H8         -1.4354   -6.5019   -4.0395 H         1 <0>         0.1131
     34 H9         -3.0631   -2.5320   -0.6281 H         1 <0>         0.2515
     35 H10        -1.9729   -0.1546   -1.8502 H         1 <0>         0.1020
     36 H11        -0.9006   -1.5646   -2.0238 H         1 <0>         0.0697
     37 H12        -0.9176   -1.8803    0.4356 H         1 <0>         0.0883
     38 H13        -1.9899   -0.4703    0.6092 H         1 <0>         0.1012
     39 H14         1.6391   -1.4013   -0.0211 H         1 <0>         0.1661
     40 H15        -2.0691    2.1081    0.0430 H         1 <0>         0.1336
     41 H16        -1.5024    4.4857    0.0412 H         1 <0>         0.1309
     42 H17         0.8476    5.2066    0.0226 H         1 <0>         0.1306
     43 H18         2.6600    3.5519   -0.0043 H         1 <0>         0.1256
@<TRIPOS>BOND
     1    1    2 1
     2    1   27 1
     3    1   28 1
     4    1   29 1
     5    2    8 am
     6    2    3 1
     7    3    4 2
     8    3   30 1
     9    4    5 1
    10    4   11 1
    11    5    6 2
    12    5    7 am
    13    7    8 am
    14    7   10 1
    15    8    9 2
    16   10   31 1
    17   10   32 1
    18   10   33 1
    19   11   12 2
    20   11   13 2
    21   11   14 1
    22   14   15 1
    23   14   34 1
    24   15   16 1
    25   15   35 1
    26   15   36 1
    27   16   17 1
    28   16   37 1
    29   16   38 1
    30   17   22 1
    31   17   18 2
    32   18   19 1
    33   18   39 1
    34   19   20 1
    35   19   21 1
    36   21   26 ar
    37   21   22 ar
    38   22   23 ar
    39   23   24 ar
    40   23   40 1
    41   24   25 ar
    42   24   41 1
    43   25   26 ar
    44   25   42 1
    45   26   43 1
@<TRIPOS>MOLECULE
ZINC04339085
   41    43     0     0     0
SMALL
USER_CHARGES

@<TRIPOS>ATOM
      1 C1          4.8015   -8.1943   -1.4748 C.3       1 <0>        -0.0661
      2 O1          3.7868   -8.9889   -0.8575 O.3       1 <0>        -0.1932
      3 C2          2.7083   -8.3308   -0.3541 C.ar      1 <0>         0.0997
      4 C3          2.6317   -6.9555   -0.4533 C.ar      1 <0>        -0.2151
      5 C4          1.5199   -6.2783    0.0664 C.ar      1 <0>        -0.0361
      6 C5          0.4929   -7.0006    0.6895 C.ar      1 <0>        -0.2231
      7 C6          0.5754   -8.3762    0.7795 C.ar      1 <0>         0.1072
      8 C7          1.6825   -9.0452    0.2615 C.ar      1 <0>         0.0354
      9 O2          1.7618  -10.3984    0.3565 O.3       1 <0>        -0.2578
     10 O3         -0.4229   -9.0785    1.3792 O.3       1 <0>        -0.1929
     11 C8         -1.5282   -8.3291    1.8881 C.3       1 <0>        -0.0717
     12 C9          1.4344   -4.8193   -0.0361 C.2       1 <0>         0.0372
     13 C10         0.2049   -4.2062   -0.1213 C.2       1 <0>        -0.0696
     14 C11        -0.9816   -4.9966   -0.2557 C.1       1 <0>        -0.0892
     15 N1         -1.9228   -5.6237   -0.3623 N.1       1 <0>        -0.0351
     16 C12         0.1097   -2.7378   -0.0743 C.2       1 <0>         0.1872
     17 N2         -1.1293   -2.1600   -0.1612 N.am      1 <0>        -0.3081
     18 H1         -1.9412   -2.7364   -0.2538 H         1 <0>         0.2582
     19 C13        -1.2610   -0.8136   -0.1225 C.2       1 <0>         0.3465
     20 O4         -2.3542   -0.2836   -0.1985 O.2       1 <0>        -0.3407
     21 C14        -0.0345   -0.0152    0.0157 C.ar      1 <0>        -0.1858
     22 C15        -0.0655    1.3772    0.0660 C.ar      1 <0>        -0.0500
     23 C16         1.1147    2.0763    0.1969 C.ar      1 <0>        -0.1520
     24 C17         2.3283    1.4054    0.2785 C.ar      1 <0>        -0.0907
     25 C18         2.3820    0.0411    0.2313 C.ar      1 <0>        -0.1222
     26 C19         1.2015   -0.6969    0.0989 C.ar      1 <0>         0.0606
     27 N3          1.2146   -2.0430    0.0493 N.2       1 <0>        -0.2301
     28 H2          4.3737   -7.6473   -2.3150 H         1 <0>         0.0718
     29 H3          5.2025   -7.4881   -0.7478 H         1 <0>         0.0671
     30 H4          5.6023   -8.8415   -1.8325 H         1 <0>         0.1148
     31 H5          3.4274   -6.4026   -0.9302 H         1 <0>         0.1451
     32 H6         -0.3635   -6.4825    1.0952 H         1 <0>         0.1540
     33 H7          2.1965  -10.7113    1.1616 H         1 <0>         0.2267
     34 H8         -2.2508   -9.0088    2.3397 H         1 <0>         0.1148
     35 H9         -1.1737   -7.6239    2.6398 H         1 <0>         0.0653
     36 H10        -2.0030   -7.7831    1.0729 H         1 <0>         0.0866
     37 H11         2.3360   -4.2248   -0.0447 H         1 <0>         0.1764
     38 H12        -1.0060    1.9039   -0.0014 H         1 <0>         0.1560
     39 H13         1.0960    3.1554    0.2364 H         1 <0>         0.1374
     40 H14         3.2429    1.9706    0.3804 H         1 <0>         0.1349
     41 H15         3.3334   -0.4659    0.2956 H         1 <0>         0.1466
@<TRIPOS>BOND
     1    1    2 1
     2    1   28 1
     3    1   29 1
     4    1   30 1
     5    2    3 1
     6    3    8 ar
     7    3    4 ar
     8    4    5 ar
     9    4   31 1
    10    5    6 ar
    11    5   12 1
    12    6    7 ar
    13    6   32 1
    14    7    8 ar
    15    7   10 1
    16    8    9 1
    17    9   33 1
    18   10   11 1
    19   11   34 1
    20   11   35 1
    21   11   36 1
    22   12   13 2
    23   12   37 1
    24   13   14 1
    25   13   16 1
    26   14   15 3
    27   16   27 2
    28   16   17 1
    29   17   18 1
    30   17   19 am
    31   19   20 2
    32   19   21 1
    33   21   26 ar
    34   21   22 ar
    35   22   23 ar
    36   22   38 1
    37   23   24 ar
    38   23   39 1
    39   24   25 ar
    40   24   40 1
    41   25   26 ar
    42   25   41 1
    43   26   27 1
@<TRIPOS>MOLECULE
ZINC04339085
   41    43     0     0     0
SMALL
USER_CHARGES

@<TRIPOS>ATOM
      1 C1          4.8020   -8.1936   -1.4768 C.3       1 <0>        -0.0653
      2 O1          3.7872   -8.9885   -0.8600 O.3       1 <0>        -0.1919
      3 C2          2.7086   -8.3306   -0.3566 C.ar      1 <0>         0.1010
      4 C3          2.6320   -6.9553   -0.4553 C.ar      1 <0>        -0.2220
      5 C4          1.5200   -6.2783    0.0644 C.ar      1 <0>        -0.0255
      6 C5          0.4929   -7.0008    0.6871 C.ar      1 <0>        -0.2199
      7 C6          0.5755   -8.3765    0.7766 C.ar      1 <0>         0.1104
      8 C7          1.6827   -9.0452    0.2586 C.ar      1 <0>         0.0360
      9 O2          1.7620  -10.3985    0.3531 O.3       1 <0>        -0.2567
     10 O3         -0.4230   -9.0790    1.3758 O.3       1 <0>        -0.1924
     11 C8         -1.5284   -8.3298    1.8848 C.3       1 <0>        -0.0733
     12 C9          1.4345   -4.8192   -0.0375 C.2       1 <0>        -0.0349
     13 C10         0.2050   -4.2061   -0.1228 C.2       1 <0>        -0.0159
     14 C11        -0.9814   -4.9965   -0.2577 C.1       1 <0>        -0.0640
     15 N1         -1.9226   -5.6236   -0.3647 N.1       1 <0>        -0.0146
     16 C12         0.1098   -2.7378   -0.0753 C.2       1 <0>         0.1892
     17 N2         -1.1292   -2.1600   -0.1622 N.2       1 <0>        -0.2754
     18 H1          2.0892   -2.5244    0.1073 H         1 <0>         0.2439
     19 C13        -1.2610   -0.8136   -0.1230 C.2       1 <0>         0.3133
     20 O4         -2.3542   -0.2836   -0.1991 O.2       1 <0>        -0.3001
     21 C14        -0.0344   -0.0152    0.0146 C.ar      1 <0>        -0.1920
     22 C15        -0.0654    1.3773    0.0644 C.ar      1 <0>        -0.0358
     23 C16         1.1149    2.0764    0.1948 C.ar      1 <0>        -0.1613
     24 C17         2.3285    1.4055    0.2764 C.ar      1 <0>        -0.0723
     25 C18         2.3821    0.0412    0.2298 C.ar      1 <0>        -0.1839
     26 C19         1.2016   -0.6969    0.0979 C.ar      1 <0>         0.0654
     27 N3          1.2147   -2.0430    0.0483 N.pl3     1 <0>        -0.2166
     28 H2          4.3744   -7.6463   -2.3169 H         1 <0>         0.0713
     29 H3          5.2028   -7.4877   -0.7495 H         1 <0>         0.0642
     30 H4          5.6029   -8.8407   -1.8346 H         1 <0>         0.1157
     31 H5          3.4277   -6.4022   -0.9318 H         1 <0>         0.1398
     32 H6         -0.3636   -6.4829    1.0928 H         1 <0>         0.1598
     33 H7          2.1965  -10.7117    1.1582 H         1 <0>         0.2270
     34 H8         -2.2510   -9.0097    2.3360 H         1 <0>         0.1161
     35 H9         -1.1740   -7.6249    2.6368 H         1 <0>         0.0656
     36 H10        -2.0030   -7.7835    1.0697 H         1 <0>         0.0915
     37 H11         2.3361   -4.2247   -0.0458 H         1 <0>         0.1331
     38 H12        -1.0059    1.9040   -0.0031 H         1 <0>         0.1642
     39 H13         1.0962    3.1555    0.2338 H         1 <0>         0.1397
     40 H14         3.2431    1.9707    0.3779 H         1 <0>         0.1361
     41 H15         3.3335   -0.4658    0.2941 H         1 <0>         0.1307
@<TRIPOS>BOND
     1    1    2 1
     2    1   28 1
     3    1   29 1
     4    1   30 1
     5    2    3 1
     6    3    8 ar
     7    3    4 ar
     8    4    5 ar
     9    4   31 1
    10    5    6 ar
    11    5   12 1
    12    6    7 ar
    13    6   32 1
    14    7    8 ar
    15    7   10 1
    16    8    9 1
    17    9   33 1
    18   10   11 1
    19   11   34 1
    20   11   35 1
    21   11   36 1
    22   12   13 2
    23   12   37 1
    24   13   14 1
    25   13   16 1
    26   14   15 3
    27   16   27 1
    28   16   17 2
    29   17   19 1
    30   18   27 1
    31   19   20 2
    32   19   21 1
    33   21   22 ar
    34   21   26 ar
    35   22   23 ar
    36   22   38 1
    37   23   24 ar
    38   23   39 1
    39   24   25 ar
    40   24   40 1
    41   25   26 ar
    42   25   41 1
    43   26   27 1
@<TRIPOS>MOLECULE
ZINC04339085
   41    43     0     0     0
SMALL
USER_CHARGES

@<TRIPOS>ATOM
      1 C1          4.8015   -8.1936   -1.4788 C.3       1 <0>        -0.0652
      2 O1          3.7870   -8.9884   -0.8615 O.3       1 <0>        -0.1954
      3 C2          2.7085   -8.3306   -0.3577 C.ar      1 <0>         0.0988
      4 C3          2.6319   -6.9552   -0.4564 C.ar      1 <0>        -0.2217
      5 C4          1.5202   -6.2783    0.0638 C.ar      1 <0>        -0.0227
      6 C5          0.4933   -7.0008    0.6869 C.ar      1 <0>        -0.2250
      7 C6          0.5759   -8.3764    0.7764 C.ar      1 <0>         0.1079
      8 C7          1.6829   -9.0452    0.2579 C.ar      1 <0>         0.0274
      9 O2          1.7623  -10.3984    0.3524 O.3       1 <0>        -0.2590
     10 O3         -0.4222   -9.0790    1.3761 O.3       1 <0>        -0.1956
     11 C8         -1.5274   -8.3298    1.8855 C.3       1 <0>        -0.0725
     12 C9          1.4346   -4.8192   -0.0381 C.2       1 <0>        -0.0028
     13 C10         0.2050   -4.2061   -0.1228 C.2       1 <0>        -0.0114
     14 C11        -0.9815   -4.9965   -0.2572 C.1       1 <0>        -0.0622
     15 N1         -1.9227   -5.6236   -0.3638 N.1       1 <0>        -0.0465
     16 C12         0.1098   -2.7378   -0.0753 C.ar      1 <0>         0.1644
     17 N2         -1.1292   -2.1600   -0.1623 N.ar      1 <0>        -0.2721
     18 H1         -2.2469    0.7096   -0.1543 H         1 <0>         0.2725
     19 C13        -1.2609   -0.8136   -0.1237 C.ar      1 <0>         0.2386
     20 O4         -2.3540   -0.2835   -0.2009 O.3       1 <0>        -0.1572
     21 C14        -0.0345   -0.0152    0.0153 C.ar      1 <0>        -0.2530
     22 C15        -0.0655    1.3772    0.0657 C.ar      1 <0>        -0.1053
     23 C16         1.1146    2.0763    0.1977 C.ar      1 <0>        -0.1323
     24 C17         2.3282    1.4054    0.2793 C.ar      1 <0>        -0.0948
     25 C18         2.3820    0.0411    0.2310 C.ar      1 <0>        -0.1113
     26 C19         1.2015   -0.6969    0.0985 C.ar      1 <0>         0.0972
     27 N3          1.2147   -2.0430    0.0484 N.ar      1 <0>        -0.2568
     28 H2          4.3735   -7.6463   -2.3187 H         1 <0>         0.0714
     29 H3          5.2026   -7.4876   -0.7516 H         1 <0>         0.0660
     30 H4          5.6022   -8.8406   -1.8369 H         1 <0>         0.1119
     31 H5          3.4274   -6.4021   -0.9332 H         1 <0>         0.1426
     32 H6         -0.3630   -6.4829    1.0930 H         1 <0>         0.1581
     33 H7          2.1972  -10.7116    1.1573 H         1 <0>         0.2234
     34 H8         -2.2499   -9.0097    2.3370 H         1 <0>         0.1114
     35 H9         -1.1728   -7.6249    2.6374 H         1 <0>         0.0650
     36 H10        -2.0024   -7.7836    1.0706 H         1 <0>         0.0910
     37 H11         2.3362   -4.2247   -0.0467 H         1 <0>         0.1702
     38 H12        -1.0059    1.9039   -0.0022 H         1 <0>         0.1177
     39 H13         1.0959    3.1554    0.2376 H         1 <0>         0.1364
     40 H14         3.2428    1.9706    0.3817 H         1 <0>         0.1381
     41 H15         3.3335   -0.4659    0.2949 H         1 <0>         0.1527
@<TRIPOS>BOND
     1    1    2 1
     2    1   28 1
     3    1   29 1
     4    1   30 1
     5    2    3 1
     6    3    8 ar
     7    3    4 ar
     8    4    5 ar
     9    4   31 1
    10    5    6 ar
    11    5   12 1
    12    6    7 ar
    13    6   32 1
    14    7    8 ar
    15    7   10 1
    16    8    9 1
    17    9   33 1
    18   10   11 1
    19   11   34 1
    20   11   35 1
    21   11   36 1
    22   12   13 2
    23   12   37 1
    24   13   14 1
    25   13   16 1
    26   14   15 3
    27   16   27 ar
    28   16   17 ar
    29   17   19 ar
    30   18   20 1
    31   19   20 1
    32   19   21 ar
    33   21   22 ar
    34   21   26 ar
    35   22   23 ar
    36   22   38 1
    37   23   24 ar
    38   23   39 1
    39   24   25 ar
    40   24   40 1
    41   25   26 ar
    42   25   41 1
    43   26   27 ar
@<TRIPOS>MOLECULE
ZINC04354261
   42    44     0     0     0
SMALL
USER_CHARGES

@<TRIPOS>ATOM
      1 C1          5.2469   -4.2808    0.5980 C.3       1 <0>        -0.1772
      2 C2          5.0528   -2.8010    0.3893 C.ar      1 <0>        -0.0783
      3 C3          3.9796   -2.1562    0.9768 C.ar      1 <0>        -0.1114
      4 C4          3.8019   -0.7993    0.7919 C.ar      1 <0>        -0.1159
      5 C5          4.6963   -0.0841    0.0058 C.ar      1 <0>         0.0526
      6 C6          5.7731   -0.7344   -0.5823 C.ar      1 <0>        -0.1475
      7 C7          5.9483   -2.0908   -0.3887 C.ar      1 <0>        -0.0567
      8 C8          7.1167   -2.7974   -1.0265 C.3       1 <0>        -0.1772
      9 N1          4.5159    1.2894   -0.1883 N.pl3     1 <0>        -0.2679
     10 C9          3.2529    1.8123   -0.2440 C.2       1 <0>         0.3267
     11 N2          3.0726    3.1637   -0.3177 N.am      1 <0>        -0.3490
     12 H1          3.8614    3.7782   -0.3317 H         1 <0>         0.2519
     13 C10         1.8200    3.6622   -0.3715 C.2       1 <0>         0.3713
     14 O1          1.6421    4.8668   -0.4371 O.2       1 <0>        -0.3384
     15 N3          0.7769    2.8302   -0.3571 N.2       1 <0>        -0.3789
     16 C11         0.9671    1.5184   -0.2801 C.2       1 <0>         0.2938
     17 N4          2.2012    1.0116   -0.2263 N.2       1 <0>        -0.3813
     18 N5         -0.1176    0.6729   -0.2613 N.pl3     1 <0>        -0.2562
     19 C12        -1.4128    1.1982   -0.2129 C.ar      1 <0>         0.1140
     20 C13        -1.6634    2.3682    0.4923 C.ar      1 <0>        -0.1222
     21 C14        -2.9428    2.8864    0.5350 C.ar      1 <0>        -0.0508
     22 C15        -3.9756    2.2368   -0.1159 C.ar      1 <0>        -0.1309
     23 C16        -3.7304    1.0691   -0.8149 C.ar      1 <0>        -0.0531
     24 C17        -2.4524    0.5479   -0.8651 C.ar      1 <0>        -0.1733
     25 N6         -5.3467    2.7922   -0.0638 N.pl3     1 <0>         0.5514
     26 O2         -6.2574    2.2209   -0.6362 O.2       1 <0>        -0.3631
     27 O3         -5.5641    3.8206    0.5516 O.3       1 <0>        -0.3566
     28 H2          5.8645   -4.4454    1.4809 H         1 <0>         0.0890
     29 H3          4.2771   -4.7581    0.7389 H         1 <0>         0.0834
     30 H4          5.7393   -4.7094   -0.2749 H         1 <0>         0.0870
     31 H5          3.2820   -2.7137    1.5843 H         1 <0>         0.1371
     32 H6          2.9659   -0.2956    1.2543 H         1 <0>         0.1582
     33 H7          6.4729   -0.1802   -1.1901 H         1 <0>         0.1325
     34 H8          7.9693   -2.7752   -0.3478 H         1 <0>         0.0892
     35 H9          6.8454   -3.8323   -1.2354 H         1 <0>         0.0901
     36 H10         7.3803   -2.2959   -1.9577 H         1 <0>         0.0828
     37 H11         5.2863    1.8711   -0.2834 H         1 <0>         0.2506
     38 H12         0.0156   -0.2876   -0.2857 H         1 <0>         0.2602
     39 H13        -0.8580    2.8739    1.0043 H         1 <0>         0.1821
     40 H14        -3.1376    3.7982    1.0801 H         1 <0>         0.1707
     41 H15        -4.5392    0.5639   -1.3219 H         1 <0>         0.1657
     42 H16        -2.2615   -0.3640   -1.4112 H         1 <0>         0.1458
@<TRIPOS>BOND
     1    1    2 1
     2    1   28 1
     3    1   29 1
     4    1   30 1
     5    2    7 ar
     6    2    3 ar
     7    3    4 ar
     8    3   31 1
     9    4    5 ar
    10    4   32 1
    11    5    6 ar
    12    5    9 1
    13    6    7 ar
    14    6   33 1
    15    7    8 1
    16    8   34 1
    17    8   35 1
    18    8   36 1
    19    9   10 1
    20    9   37 1
    21   10   17 2
    22   10   11 1
    23   11   12 1
    24   11   13 am
    25   13   14 2
    26   13   15 1
    27   15   16 2
    28   16   17 1
    29   16   18 1
    30   18   19 1
    31   18   38 1
    32   19   24 ar
    33   19   20 ar
    34   20   21 ar
    35   20   39 1
    36   21   22 ar
    37   21   40 1
    38   22   23 ar
    39   22   25 1
    40   23   24 ar
    41   23   41 1
    42   24   42 1
    43   25   26 2
    44   25   27 1
@<TRIPOS>MOLECULE
ZINC04354261
   42    44     0     0     0
SMALL
USER_CHARGES

@<TRIPOS>ATOM
      1 C1          5.2443   -4.2802    0.6145 C.3       1 <0>        -0.1774
      2 C2          5.0508   -2.8003    0.4059 C.ar      1 <0>        -0.0886
      3 C3          3.9746   -2.1562    0.9887 C.ar      1 <0>        -0.0900
      4 C4          3.7974   -0.7993    0.8039 C.ar      1 <0>        -0.2154
      5 C5          4.6953   -0.0833    0.0226 C.ar      1 <0>         0.0558
      6 C6          5.7751   -0.7328   -0.5608 C.ar      1 <0>        -0.1491
      7 C7          5.9498   -2.0893   -0.3673 C.ar      1 <0>        -0.0335
      8 C8          7.1214   -2.7952   -1.0000 C.3       1 <0>        -0.1819
      9 N1          4.5155    1.2903   -0.1714 N.pl3     1 <0>        -0.2700
     10 C9          3.2526    1.8129   -0.2328 C.2       1 <0>         0.2764
     11 N2          3.0723    3.1643   -0.3065 N.2       1 <0>        -0.3485
     12 H1          2.3304    0.0218   -0.1673 H         1 <0>         0.2627
     13 C10         1.8200    3.6622   -0.3715 C.2       1 <0>         0.3372
     14 O1          1.6421    4.8668   -0.4371 O.2       1 <0>        -0.3040
     15 N3          0.7769    2.8302   -0.3580 N.2       1 <0>        -0.3494
     16 C11         0.9671    1.5184   -0.2810 C.2       1 <0>         0.2745
     17 N4          2.2011    1.0119   -0.2212 N.pl3     1 <0>        -0.3058
     18 N5         -0.1176    0.6728   -0.2626 N.pl3     1 <0>        -0.2916
     19 C12        -1.4128    1.1981   -0.2146 C.ar      1 <0>         0.1141
     20 C13        -1.6637    2.3681    0.4905 C.ar      1 <0>        -0.1158
     21 C14        -2.9431    2.8862    0.5328 C.ar      1 <0>        -0.0491
     22 C15        -3.9757    2.2367   -0.1185 C.ar      1 <0>        -0.1263
     23 C16        -3.7302    1.0690   -0.8175 C.ar      1 <0>        -0.0533
     24 C17        -2.4521    0.5478   -0.8672 C.ar      1 <0>        -0.1726
     25 N6         -5.3468    2.7920   -0.0669 N.pl3     1 <0>         0.5506
     26 O2         -6.2573    2.2207   -0.6397 O.2       1 <0>        -0.3611
     27 O3         -5.5644    3.8204    0.5485 O.3       1 <0>        -0.3521
     28 H2          5.8577   -4.4453    1.5002 H         1 <0>         0.0941
     29 H3          4.2740   -4.7579    0.7504 H         1 <0>         0.0836
     30 H4          5.7410   -4.7081   -0.2563 H         1 <0>         0.0900
     31 H5          3.2742   -2.7143    1.5924 H         1 <0>         0.1395
     32 H6          2.9590   -0.2961    1.2626 H         1 <0>         0.1395
     33 H7          6.4777   -0.1780   -1.1649 H         1 <0>         0.1463
     34 H8          7.9708   -2.7732   -0.3172 H         1 <0>         0.0969
     35 H9          6.8514   -3.8300   -1.2109 H         1 <0>         0.0924
     36 H10         7.3894   -2.2929   -1.9296 H         1 <0>         0.0884
     37 H11         5.2862    1.8723   -0.2624 H         1 <0>         0.2808
     38 H12         0.0157   -0.2877   -0.2870 H         1 <0>         0.2431
     39 H13        -0.8585    2.8738    1.0028 H         1 <0>         0.1853
     40 H14        -3.1381    3.7980    1.0779 H         1 <0>         0.1742
     41 H15        -4.5388    0.5638   -1.3248 H         1 <0>         0.1672
     42 H16        -2.2610   -0.3641   -1.4133 H         1 <0>         0.1429
@<TRIPOS>BOND
     1    1    2 1
     2    1   28 1
     3    1   29 1
     4    1   30 1
     5    2    7 ar
     6    2    3 ar
     7    3    4 ar
     8    3   31 1
     9    4    5 ar
    10    4   32 1
    11    5    6 ar
    12    5    9 1
    13    6    7 ar
    14    6   33 1
    15    7    8 1
    16    8   34 1
    17    8   35 1
    18    8   36 1
    19    9   10 1
    20    9   37 1
    21   10   17 1
    22   10   11 2
    23   11   13 1
    24   12   17 1
    25   13   14 2
    26   13   15 1
    27   15   16 2
    28   16   18 1
    29   16   17 1
    30   18   19 1
    31   18   38 1
    32   19   24 ar
    33   19   20 ar
    34   20   21 ar
    35   20   39 1
    36   21   22 ar
    37   21   40 1
    38   22   23 ar
    39   22   25 1
    40   23   24 ar
    41   23   41 1
    42   24   42 1
    43   25   26 2
    44   25   27 1
@<TRIPOS>MOLECULE
ZINC04354261
   42    44     0     0     0
SMALL
USER_CHARGES

@<TRIPOS>ATOM
      1 C1          5.2469   -4.2808    0.5980 C.3       1 <0>        -0.1751
      2 C2          5.0528   -2.8010    0.3893 C.ar      1 <0>        -0.0877
      3 C3          3.9796   -2.1562    0.9768 C.ar      1 <0>        -0.1122
      4 C4          3.8019   -0.7993    0.7919 C.ar      1 <0>        -0.1242
      5 C5          4.6963   -0.0841    0.0058 C.ar      1 <0>         0.0646
      6 C6          5.7731   -0.7344   -0.5823 C.ar      1 <0>        -0.1530
      7 C7          5.9483   -2.0908   -0.3887 C.ar      1 <0>        -0.0567
      8 C8          7.1167   -2.7974   -1.0265 C.3       1 <0>        -0.1764
      9 N1          4.5159    1.2894   -0.1883 N.pl3     1 <0>        -0.2449
     10 C9          3.2529    1.8123   -0.2440 C.ar      1 <0>         0.2992
     11 N2          3.0723    3.1643   -0.3064 N.ar      1 <0>        -0.3731
     12 H1          0.6605    5.0585   -0.4503 H         1 <0>         0.2873
     13 C10         1.8197    3.6628   -0.3603 C.ar      1 <0>         0.3093
     14 O1          1.6416    4.8678   -0.4167 O.3       1 <0>        -0.1576
     15 N3          0.7775    2.8295   -0.3744 N.ar      1 <0>        -0.4703
     16 C11         0.9677    1.5174   -0.3028 C.ar      1 <0>         0.3065
     17 N4          2.2014    1.0111   -0.2376 N.ar      1 <0>        -0.3883
     18 N5         -0.1167    0.6714   -0.2957 N.pl3     1 <0>        -0.2617
     19 C12        -1.4126    1.1961   -0.2593 C.ar      1 <0>         0.1249
     20 C13        -1.6706    2.3650    0.4449 C.ar      1 <0>        -0.1397
     21 C14        -2.9506    2.8826    0.4758 C.ar      1 <0>        -0.0564
     22 C15        -3.9767    2.2334   -0.1860 C.ar      1 <0>        -0.1348
     23 C16        -3.7241    1.0667   -0.8841 C.ar      1 <0>        -0.0478
     24 C17        -2.4455    0.5462   -0.9225 C.ar      1 <0>        -0.1748
     25 N6         -5.3485    2.7881   -0.1466 N.pl3     1 <0>         0.5515
     26 O2         -6.2533    2.2172   -0.7286 O.2       1 <0>        -0.3588
     27 O3         -5.5724    3.8156    0.4680 O.3       1 <0>        -0.3594
     28 H2          5.8645   -4.4454    1.4809 H         1 <0>         0.0864
     29 H3          4.2771   -4.7581    0.7389 H         1 <0>         0.0802
     30 H4          5.7393   -4.7094   -0.2749 H         1 <0>         0.0848
     31 H5          3.2820   -2.7137    1.5843 H         1 <0>         0.1324
     32 H6          2.9659   -0.2956    1.2543 H         1 <0>         0.1549
     33 H7          6.4729   -0.1802   -1.1901 H         1 <0>         0.1335
     34 H8          7.9693   -2.7752   -0.3478 H         1 <0>         0.0875
     35 H9          6.8454   -3.8323   -1.2354 H         1 <0>         0.0873
     36 H10         7.3803   -2.2959   -1.9577 H         1 <0>         0.0817
     37 H11         5.2863    1.8711   -0.2834 H         1 <0>         0.2624
     38 H12         0.0171   -0.2890   -0.3201 H         1 <0>         0.2646
     39 H13        -0.8705    2.8704    0.9654 H         1 <0>         0.1710
     40 H14        -3.1512    3.7936    1.0201 H         1 <0>         0.1658
     41 H15        -4.5277    0.5618   -1.3997 H         1 <0>         0.1676
     42 H16        -2.2488   -0.3649   -1.4679 H         1 <0>         0.1497
@<TRIPOS>BOND
     1    1    2 1
     2    1   28 1
     3    1   29 1
     4    1   30 1
     5    2    7 ar
     6    2    3 ar
     7    3    4 ar
     8    3   31 1
     9    4    5 ar
    10    4   32 1
    11    5    6 ar
    12    5    9 1
    13    6    7 ar
    14    6   33 1
    15    7    8 1
    16    8   34 1
    17    8   35 1
    18    8   36 1
    19    9   10 1
    20    9   37 1
    21   10   17 ar
    22   10   11 ar
    23   11   13 ar
    24   12   14 1
    25   13   14 1
    26   13   15 ar
    27   15   16 ar
    28   16   18 1
    29   16   17 ar
    30   18   19 1
    31   18   38 1
    32   19   24 ar
    33   19   20 ar
    34   20   21 ar
    35   20   39 1
    36   21   22 ar
    37   21   40 1
    38   22   23 ar
    39   22   25 1
    40   23   24 ar
    41   23   41 1
    42   24   42 1
    43   25   26 2
    44   25   27 1
@<TRIPOS>MOLECULE
ZINC04355893
   41    44     0     0     0
SMALL
USER_CHARGES

@<TRIPOS>ATOM
      1 C1          6.8243    7.4764    3.2845 C.ar      1 <0>        -0.1334
      2 C2          5.8027    8.0492    4.0193 C.ar      1 <0>        -0.1072
      3 C3          4.5549    8.2214    3.4508 C.ar      1 <0>        -0.1274
      4 C4          4.3295    7.8252    2.1443 C.ar      1 <0>        -0.0411
      5 C5          5.3505    7.2474    1.4115 C.ar      1 <0>        -0.1149
      6 C6          6.5984    7.0760    1.9810 C.ar      1 <0>        -0.0927
      7 C7          5.1042    6.8103   -0.0096 C.3       1 <0>         0.0587
      8 N1          4.4258    5.5119   -0.0106 N.pl3     1 <0>        -0.1731
      9 C8          3.0760    5.2956    0.0012 C.ar      1 <0>         0.1118
     10 C9          2.9056    3.9001   -0.0047 C.ar      1 <0>        -0.2946
     11 C10         1.5898    3.3947    0.0051 C.ar      1 <0>         0.2858
     12 N2          0.5802    4.2572    0.0139 N.ar      1 <0>        -0.3213
     13 C11         0.7925    5.5610    0.0244 C.ar      1 <0>         0.1794
     14 N3          2.0014    6.0797    0.0157 N.ar      1 <0>        -0.2670
     15 C12        -0.3948    6.4890    0.0408 C.3       1 <0>        -0.1134
     16 C13        -1.7757    5.8657    0.2541 C.3       1 <0>        -0.1929
     17 C14        -1.3805    6.3957   -1.1257 C.3       1 <0>        -0.1962
     18 N4          1.3557    2.0329    0.0000 N.pl3     1 <0>        -0.3158
     19 C15        -0.0187    1.5258    0.0104 C.3       1 <0>         0.0014
     20 C16         0.0021   -0.0041    0.0020 C.3       1 <0>        -0.0225
     21 O1          0.5895   -0.4792    1.2150 O.3       1 <0>        -0.3516
     22 N5          4.1255    3.3363   -0.0195 N.2       1 <0>        -0.0538
     23 N6          5.0347    4.2478   -0.0232 N.2       1 <0>         0.0227
     24 Cl1         2.7642    8.0478    1.4272 Cl        1 <0>         0.0145
     25 H1          7.7993    7.3420    3.7292 H         1 <0>         0.1358
     26 H2          5.9800    8.3625    5.0375 H         1 <0>         0.1363
     27 H3          3.7569    8.6685    4.0250 H         1 <0>         0.1449
     28 H4          7.3968    6.6290    1.4074 H         1 <0>         0.1406
     29 H5          6.0563    6.7232   -0.5331 H         1 <0>         0.1157
     30 H6          4.4788    7.5474   -0.5132 H         1 <0>         0.1306
     31 H7         -0.2153    7.4745    0.4705 H         1 <0>         0.1425
     32 H8         -1.8255    4.7844    0.3826 H         1 <0>         0.1335
     33 H9         -2.5050    6.4411    0.8243 H         1 <0>         0.1098
     34 H10        -1.8497    7.3198   -1.4632 H         1 <0>         0.1123
     35 H11        -1.1702    5.6631   -1.9049 H         1 <0>         0.1200
     36 H12         2.1015    1.4126   -0.0104 H         1 <0>         0.2598
     37 H13        -0.5459    1.8868   -0.8726 H         1 <0>         0.0996
     38 H14        -0.5289    1.8773    0.9072 H         1 <0>         0.1090
     39 H15        -1.0175   -0.3808   -0.0798 H         1 <0>         0.0737
     40 H16         0.5883   -0.3548   -0.8473 H         1 <0>         0.0653
     41 H17         0.6355   -1.4430    1.2786 H         1 <0>         0.2150
@<TRIPOS>BOND
     1    1    6 ar
     2    1    2 ar
     3    1   25 1
     4    2    3 ar
     5    2   26 1
     6    3    4 ar
     7    3   27 1
     8    4    5 ar
     9    4   24 1
    10    5    6 ar
    11    5    7 1
    12    6   28 1
    13    7    8 1
    14    7   29 1
    15    7   30 1
    16    8   23 1
    17    8    9 1
    18    9   14 ar
    19    9   10 ar
    20   10   11 ar
    21   10   22 1
    22   11   12 ar
    23   11   18 1
    24   12   13 ar
    25   13   14 ar
    26   13   15 1
    27   15   17 1
    28   15   16 1
    29   15   31 1
    30   16   17 1
    31   16   32 1
    32   16   33 1
    33   17   34 1
    34   17   35 1
    35   18   19 1
    36   18   36 1
    37   19   20 1
    38   19   37 1
    39   19   38 1
    40   20   21 1
    41   20   39 1
    42   20   40 1
    43   21   41 1
    44   22   23 2
@<TRIPOS>MOLECULE
ZINC04357769
   42    45     0     0     0
SMALL
USER_CHARGES

@<TRIPOS>ATOM
      1 C1         -2.0331    0.7983   -0.2819 C.3       1 <0>        -0.1741
      2 C2         -0.9870    1.6827    0.3461 C.ar      1 <0>        -0.0569
      3 C3         -0.0012    1.1283    1.1424 C.ar      1 <0>        -0.1380
      4 C4          0.9639    1.9354    1.7159 C.ar      1 <0>        -0.1049
      5 C5          0.9438    3.2993    1.4992 C.ar      1 <0>        -0.1205
      6 C6         -0.0479    3.8601    0.7043 C.ar      1 <0>         0.0588
      7 C7         -1.0165    3.0461    0.1299 C.ar      1 <0>        -0.1591
      8 N1         -0.0715    5.2395    0.4833 N.pl3     1 <0>        -0.2727
      9 C8          1.1125    5.9456    0.3977 C.ar      1 <0>         0.1324
     10 C9          1.0790    7.4086    0.2804 C.ar      1 <0>         0.1335
     11 N2          2.1954    8.1015    0.1971 N.ar      1 <0>        -0.1590
     12 C10         3.3727    7.4635    0.2202 C.ar      1 <0>        -0.1035
     13 C11         3.4065    5.9861    0.3392 C.ar      1 <0>        -0.1049
     14 N3          2.2594    5.3003    0.4276 N.ar      1 <0>        -0.1536
     15 N4          4.6917    5.7242    0.3292 N.2       1 <0>        -0.0311
     16 O1          5.3083    6.7647    0.2298 O.3       1 <0>         0.1430
     17 N5          4.6448    7.7785    0.1638 N.2       1 <0>        -0.0337
     18 N6         -0.1358    8.0646    0.2567 N.pl3     1 <0>        -0.2693
     19 C12        -0.1758    9.4632    0.2632 C.ar      1 <0>         0.0149
     20 C13         0.7915   10.1829    0.9529 C.ar      1 <0>        -0.0749
     21 C14         0.7539   11.5632    0.9548 C.ar      1 <0>        -0.2018
     22 C15        -0.2559   12.2309    0.2773 C.ar      1 <0>         0.0887
     23 C16        -1.2252   11.5129   -0.4078 C.ar      1 <0>        -0.1423
     24 C17        -1.1862   10.1326   -0.4152 C.ar      1 <0>        -0.1214
     25 O2         -0.2953   13.5901    0.2843 O.3       1 <0>        -0.2116
     26 C18         0.7342   14.2652    1.0098 C.3       1 <0>        -0.0638
     27 H1         -2.8842    0.7068    0.3929 H         1 <0>         0.0861
     28 H2         -2.3619    1.2370   -1.2240 H         1 <0>         0.0817
     29 H3         -1.6099   -0.1887   -0.4688 H         1 <0>         0.0858
     30 H4          0.0173    0.0620    1.3129 H         1 <0>         0.1328
     31 H5          1.7346    1.4988    2.3338 H         1 <0>         0.1373
     32 H6          1.6980    3.9292    1.9474 H         1 <0>         0.1587
     33 H7         -1.7889    3.4788   -0.4886 H         1 <0>         0.1282
     34 H8         -0.9195    5.7012    0.3900 H         1 <0>         0.2417
     35 H9         -0.9614    7.5559    0.2356 H         1 <0>         0.2411
     36 H10         1.5749    9.6631    1.4844 H         1 <0>         0.1610
     37 H11         1.5083   12.1231    1.4876 H         1 <0>         0.1429
     38 H12        -2.0107   12.0335   -0.9353 H         1 <0>         0.1475
     39 H13        -1.9409    9.5738   -0.9486 H         1 <0>         0.1319
     40 H14         0.6969   13.9657    2.0572 H         1 <0>         0.0679
     41 H15         1.7057   14.0026    0.5912 H         1 <0>         0.0720
     42 H16         0.5853   15.3424    0.9344 H         1 <0>         0.1092
@<TRIPOS>BOND
     1    1    2 1
     2    1   27 1
     3    1   28 1
     4    1   29 1
     5    2    7 ar
     6    2    3 ar
     7    3    4 ar
     8    3   30 1
     9    4    5 ar
    10    4   31 1
    11    5    6 ar
    12    5   32 1
    13    6    7 ar
    14    6    8 1
    15    7   33 1
    16    8    9 1
    17    8   34 1
    18    9   14 ar
    19    9   10 ar
    20   10   11 ar
    21   10   18 1
    22   11   12 ar
    23   12   17 2
    24   12   13 ar
    25   13   14 ar
    26   13   15 2
    27   15   16 1
    28   16   17 1
    29   18   19 1
    30   18   35 1
    31   19   24 ar
    32   19   20 ar
    33   20   21 ar
    34   20   36 1
    35   21   22 ar
    36   21   37 1
    37   22   23 ar
    38   22   25 1
    39   23   24 ar
    40   23   38 1
    41   24   39 1
    42   25   26 1
    43   26   40 1
    44   26   41 1
    45   26   42 1
@<TRIPOS>MOLECULE
ZINC04384164
   42    44     0     0     0
SMALL
USER_CHARGES

@<TRIPOS>ATOM
      1 C1         -2.7070    4.2890   -4.3722 C.3       1 <0>        -0.2144
      2 C2         -1.2635    3.8083   -4.2109 C.3       1 <0>        -0.1687
      3 H1         -1.1001    2.9318   -4.8380 H         1 <0>         0.1448
      4 C3         -0.3189    4.9065   -4.6265 C.2       1 <0>         0.1389
      5 N1          0.1582    4.8990   -5.8985 N.am      1 <0>        -0.3041
      6 H2         -0.1191    4.1726   -6.5274 H         1 <0>         0.2573
      7 C4          1.0054    5.8657   -6.3223 C.2       1 <0>         0.3452
      8 O1          1.4370    5.8738   -7.4605 O.2       1 <0>        -0.3407
      9 C5          1.3884    6.9028   -5.3527 C.ar      1 <0>        -0.1839
     10 C6          2.2587    7.9385   -5.6864 C.ar      1 <0>        -0.0507
     11 C7          2.5842    8.8836   -4.7383 C.ar      1 <0>        -0.1517
     12 C8          2.0528    8.8110   -3.4572 C.ar      1 <0>        -0.0924
     13 C9          1.1913    7.7958   -3.1074 C.ar      1 <0>        -0.1202
     14 C10         0.8461    6.8259   -4.0509 C.ar      1 <0>         0.0561
     15 N2          0.0014    5.8083   -3.7490 N.2       1 <0>        -0.2220
     16 S1         -0.9615    3.3759   -2.4794 S.3       1 <0>         0.2843
     17 C11        -2.0604    2.0091   -2.3092 C.2       1 <0>         0.0136
     18 N3         -2.7804    1.6258   -3.3427 N.2       1 <0>        -0.3116
     19 C12        -3.6312    0.5922   -3.2456 C.2       1 <0>         0.3247
     20 O2         -4.2966    0.2519   -4.2131 O.2       1 <0>        -0.3410
     21 C13        -3.7545   -0.0988   -2.0236 C.2       1 <0>        -0.3963
     22 C14        -2.9995    0.3033   -0.9596 C.2       1 <0>         0.2255
     23 N4         -2.1461    1.3646   -1.1118 N.pl3     1 <0>        -0.2170
     24 C15        -1.3278    1.8115    0.0182 C.3       1 <0>        -0.0071
     25 C16        -0.0126    1.0758    0.0080 C.2       1 <0>        -0.2188
     26 C17         1.1129    1.7462    0.0008 C.2       1 <0>        -0.1725
     27 N5         -3.0943   -0.3477    0.2486 N.pl3     1 <0>        -0.4116
     28 H3         -3.3902    3.4946   -4.0716 H         1 <0>         0.1338
     29 H4         -2.8704    5.1654   -3.7451 H         1 <0>         0.0932
     30 H5         -2.8888    4.5493   -5.4149 H         1 <0>         0.0868
     31 H6          2.6753    7.9998   -6.6809 H         1 <0>         0.1555
     32 H7          3.2581    9.6879   -4.9936 H         1 <0>         0.1371
     33 H8          2.3189    9.5602   -2.7262 H         1 <0>         0.1349
     34 H9          0.7842    7.7498   -2.1081 H         1 <0>         0.1485
     35 H10        -4.4351   -0.9321   -1.9303 H         1 <0>         0.1637
     36 H11        -1.8525    1.6048    0.9510 H         1 <0>         0.1039
     37 H12        -1.1455    2.8828   -0.0664 H         1 <0>         0.1236
     38 H13         0.0021   -0.0041    0.0020 H         1 <0>         0.1377
     39 H14         1.0982    2.8261    0.0067 H         1 <0>         0.1204
     40 H15         2.0554    1.2190   -0.0110 H         1 <0>         0.1254
     41 H16        -2.5549   -0.0562    1.0002 H         1 <0>         0.2211
     42 H17        -3.7006   -1.0982    0.3488 H         1 <0>         0.2485
@<TRIPOS>BOND
     1    1    2 1
     2    1   28 1
     3    1   29 1
     4    1   30 1
     5    2    3 1
     6    2    4 1
     7    2   16 1
     8    4   15 2
     9    4    5 1
    10    5    6 1
    11    5    7 am
    12    7    8 2
    13    7    9 1
    14    9   14 ar
    15    9   10 ar
    16   10   11 ar
    17   10   31 1
    18   11   12 ar
    19   11   32 1
    20   12   13 ar
    21   12   33 1
    22   13   14 ar
    23   13   34 1
    24   14   15 1
    25   16   17 1
    26   17   23 1
    27   17   18 2
    28   18   19 1
    29   19   20 2
    30   19   21 1
    31   21   22 2
    32   21   35 1
    33   22   23 1
    34   22   27 1
    35   23   24 1
    36   24   25 1
    37   24   36 1
    38   24   37 1
    39   25   26 2
    40   25   38 1
    41   26   39 1
    42   26   40 1
    43   27   41 1
    44   27   42 1
@<TRIPOS>MOLECULE
ZINC04384164
   42    44     0     0     0
SMALL
USER_CHARGES

@<TRIPOS>ATOM
      1 C1         -2.7081    4.2906   -4.3726 C.3       1 <0>        -0.2153
      2 C2         -1.2648    3.8093   -4.2114 C.3       1 <0>        -0.1618
      3 H1         -1.1018    2.9328   -4.8387 H         1 <0>         0.1872
      4 C3         -0.3198    4.9071   -4.6268 C.2       1 <0>         0.1625
      5 N1          0.1573    4.8996   -5.8988 N.2       1 <0>        -0.2868
      6 H2         -0.3884    5.7544   -2.8297 H         1 <0>         0.2495
      7 C4          1.0049    5.8660   -6.3225 C.2       1 <0>         0.3162
      8 O1          1.4365    5.8742   -7.4607 O.2       1 <0>        -0.3031
      9 C5          1.3791    6.9094   -5.3562 C.ar      1 <0>        -0.1908
     10 C6          2.2446    7.9486   -5.6918 C.ar      1 <0>        -0.0370
     11 C7          2.5657    8.8968   -4.7453 C.ar      1 <0>        -0.1610
     12 C8          2.0347    8.8240   -3.4641 C.ar      1 <0>        -0.0753
     13 C9          1.1779    7.8054   -3.1125 C.ar      1 <0>        -0.1819
     14 C10         0.8372    6.8323   -4.0543 C.ar      1 <0>         0.0618
     15 N2         -0.0032    5.8116   -3.7507 N.pl3     1 <0>        -0.2146
     16 S1         -0.9630    3.3764   -2.4800 S.3       1 <0>         0.1690
     17 C11        -2.0625    2.0101   -2.3100 C.2       1 <0>         0.0398
     18 N3         -2.7827    1.6273   -3.3436 N.2       1 <0>        -0.2935
     19 C12        -3.6339    0.5940   -3.2466 C.2       1 <0>         0.3234
     20 O2         -4.2995    0.2542   -4.2142 O.2       1 <0>        -0.3276
     21 C13        -3.7575   -0.0971   -2.0247 C.2       1 <0>        -0.3927
     22 C14        -3.0023    0.3044   -0.9607 C.2       1 <0>         0.2256
     23 N4         -2.1484    1.3654   -1.1127 N.pl3     1 <0>        -0.2180
     24 C15        -1.3299    1.8117    0.0173 C.3       1 <0>        -0.0061
     25 C16        -0.0150    1.0754    0.0070 C.2       1 <0>        -0.2171
     26 C17         1.1108    1.7453   -0.0001 C.2       1 <0>        -0.1711
     27 N5         -3.0973   -0.3468    0.2474 N.pl3     1 <0>        -0.4106
     28 H3         -3.3917    3.4965   -4.0721 H         1 <0>         0.1346
     29 H4         -2.8711    5.1670   -3.7453 H         1 <0>         0.0684
     30 H5         -2.8898    4.5512   -5.4152 H         1 <0>         0.1129
     31 H6          2.6609    8.0101   -6.6864 H         1 <0>         0.1634
     32 H7          3.2359    9.7038   -5.0020 H         1 <0>         0.1388
     33 H8          2.2973    9.5757   -2.7344 H         1 <0>         0.1355
     34 H9          0.7711    7.7593   -2.1131 H         1 <0>         0.1318
     35 H10        -4.4385   -0.9302   -1.9316 H         1 <0>         0.1665
     36 H11        -1.8547    1.6051    0.9501 H         1 <0>         0.1053
     37 H12        -1.1471    2.8829   -0.0671 H         1 <0>         0.1167
     38 H13        -0.0008   -0.0045    0.0008 H         1 <0>         0.1410
     39 H14         1.0965    2.8252    0.0060 H         1 <0>         0.1145
     40 H15         2.0530    1.2177   -0.0121 H         1 <0>         0.1287
     41 H16        -2.5578   -0.0556    0.9990 H         1 <0>         0.2213
     42 H17        -3.7040   -1.0970    0.3475 H         1 <0>         0.2502
@<TRIPOS>BOND
     1    1    2 1
     2    1   28 1
     3    1   29 1
     4    1   30 1
     5    2    3 1
     6    2    4 1
     7    2   16 1
     8    4   15 1
     9    4    5 2
    10    5    7 1
    11    6   15 1
    12    7    8 2
    13    7    9 1
    14    9   10 ar
    15    9   14 ar
    16   10   11 ar
    17   10   31 1
    18   11   12 ar
    19   11   32 1
    20   12   13 ar
    21   12   33 1
    22   13   14 ar
    23   13   34 1
    24   14   15 1
    25   16   17 1
    26   17   23 1
    27   17   18 2
    28   18   19 1
    29   19   20 2
    30   19   21 1
    31   21   22 2
    32   21   35 1
    33   22   23 1
    34   22   27 1
    35   23   24 1
    36   24   25 1
    37   24   36 1
    38   24   37 1
    39   25   26 2
    40   25   38 1
    41   26   39 1
    42   26   40 1
    43   27   41 1
    44   27   42 1
@<TRIPOS>MOLECULE
ZINC04384164
   42    44     0     0     0
SMALL
USER_CHARGES

@<TRIPOS>ATOM
      1 C1         -2.7082    4.2904   -4.3733 C.3       1 <0>        -0.2127
      2 C2         -1.2649    3.8093   -4.2114 C.3       1 <0>        -0.1340
      3 H1         -1.1016    2.9327   -4.8384 H         1 <0>         0.1634
      4 C3         -0.3198    4.9071   -4.6268 C.ar      1 <0>         0.1264
      5 N1          0.1574    4.8996   -5.8988 N.ar      1 <0>        -0.2728
      6 H2          2.0387    6.6631   -7.5832 H         1 <0>         0.2718
      7 C4          1.0045    5.8663   -6.3226 C.ar      1 <0>         0.2374
      8 O1          1.4324    5.8771   -7.4622 O.3       1 <0>        -0.1576
      9 C5          1.3795    6.9092   -5.3561 C.ar      1 <0>        -0.2498
     10 C6          2.2454    7.9480   -5.6915 C.ar      1 <0>        -0.1063
     11 C7          2.5677    8.8954   -4.7446 C.ar      1 <0>        -0.1322
     12 C8          2.0366    8.8226   -3.4633 C.ar      1 <0>        -0.0973
     13 C9          1.1786    7.8049   -3.1122 C.ar      1 <0>        -0.1088
     14 C10         0.8375    6.8321   -4.0542 C.ar      1 <0>         0.0918
     15 N2         -0.0033    5.8117   -3.7508 N.ar      1 <0>        -0.2513
     16 S1         -0.9636    3.3770   -2.4798 S.3       1 <0>         0.2555
     17 C11        -2.0630    2.0106   -2.3098 C.2       1 <0>         0.0178
     18 N3         -2.7828    1.6274   -3.3435 N.2       1 <0>        -0.3037
     19 C12        -3.6339    0.5941   -3.2465 C.2       1 <0>         0.3244
     20 O2         -4.2991    0.2539   -4.2142 O.2       1 <0>        -0.3418
     21 C13        -3.7579   -0.0967   -2.0245 C.2       1 <0>        -0.3981
     22 C14        -3.0031    0.3053   -0.9603 C.2       1 <0>         0.2243
     23 N4         -2.1493    1.3663   -1.1123 N.pl3     1 <0>        -0.2187
     24 C15        -1.3313    1.8131    0.0179 C.3       1 <0>        -0.0064
     25 C16        -0.0163    1.0769    0.0083 C.2       1 <0>        -0.2158
     26 C17         1.1094    1.7470    0.0014 C.2       1 <0>        -0.1746
     27 N5         -3.0985   -0.3456    0.2480 N.pl3     1 <0>        -0.4137
     28 H3         -3.3917    3.4963   -4.0728 H         1 <0>         0.1275
     29 H4         -2.8715    5.1670   -3.7463 H         1 <0>         0.0822
     30 H5         -2.8895    4.5507   -5.4161 H         1 <0>         0.0945
     31 H6          2.6613    8.0098   -6.6862 H         1 <0>         0.1171
     32 H7          3.2386    9.7019   -5.0010 H         1 <0>         0.1358
     33 H8          2.2999    9.5739   -2.7334 H         1 <0>         0.1378
     34 H9          0.7714    7.7590   -2.1130 H         1 <0>         0.1542
     35 H10        -4.4388   -0.9298   -1.9313 H         1 <0>         0.1614
     36 H11        -1.8564    1.6066    0.9506 H         1 <0>         0.1011
     37 H12        -1.1486    2.8843   -0.0668 H         1 <0>         0.1242
     38 H13        -0.0020   -0.0030    0.0024 H         1 <0>         0.1366
     39 H14         1.0951    2.8269    0.0071 H         1 <0>         0.1200
     40 H15         2.0517    1.2195   -0.0101 H         1 <0>         0.1233
     41 H16        -2.5593   -0.0541    0.9997 H         1 <0>         0.2199
     42 H17        -3.7051   -1.0958    0.3481 H         1 <0>         0.2470
@<TRIPOS>BOND
     1    1    2 1
     2    1   28 1
     3    1   29 1
     4    1   30 1
     5    2    3 1
     6    2    4 1
     7    2   16 1
     8    4   15 ar
     9    4    5 ar
    10    5    7 ar
    11    6    8 1
    12    7    8 1
    13    7    9 ar
    14    9   10 ar
    15    9   14 ar
    16   10   11 ar
    17   10   31 1
    18   11   12 ar
    19   11   32 1
    20   12   13 ar
    21   12   33 1
    22   13   14 ar
    23   13   34 1
    24   14   15 ar
    25   16   17 1
    26   17   23 1
    27   17   18 2
    28   18   19 1
    29   19   20 2
    30   19   21 1
    31   21   22 2
    32   21   35 1
    33   22   23 1
    34   22   27 1
    35   23   24 1
    36   24   25 1
    37   24   36 1
    38   24   37 1
    39   25   26 2
    40   25   38 1
    41   26   39 1
    42   26   40 1
    43   27   41 1
    44   27   42 1
@<TRIPOS>MOLECULE
ZINC04386416
   44    47     0     0     0
SMALL
USER_CHARGES

@<TRIPOS>ATOM
      1 C1          1.8367   -0.9744   -4.2794 C.3       1 <0>        -0.2145
      2 C2          0.6504   -0.0121   -4.1921 C.3       1 <0>        -0.0063
      3 O1          0.4795    0.4116   -2.8381 O.3       1 <0>        -0.2574
      4 C3         -0.5327    1.2700   -2.5874 C.2       1 <0>         0.3870
      5 O2         -1.2502    1.6477   -3.4964 O.2       1 <0>        -0.4086
      6 C4         -0.7576    1.7268   -1.2800 C.2       1 <0>        -0.3285
      7 C5         -1.8542    2.4826   -1.0150 C.2       1 <0>         0.2897
      8 O3         -2.1081    2.9410    0.2223 O.3       1 <0>        -0.1539
      9 C6         -1.5214    2.3631    1.2894 C.2       1 <0>         0.1580
     10 C7         -2.0883    2.5555    2.6319 C.ar      1 <0>        -0.1116
     11 C8         -3.2315    3.3337    2.8291 C.ar      1 <0>        -0.0559
     12 C9         -3.7325    3.4938    4.0906 C.ar      1 <0>        -0.1666
     13 C10        -3.1158    2.8891    5.1769 C.ar      1 <0>        -0.0683
     14 C11        -1.9871    2.1170    5.0045 C.ar      1 <0>        -0.1835
     15 C12        -1.4602    1.9412    3.7293 C.ar      1 <0>         0.1123
     16 N1         -0.3316    1.1745    3.5254 N.am      1 <0>        -0.2845
     17 H1          0.1131    0.7370    4.3070 H         1 <0>         0.2569
     18 C13         0.1802    1.0056    2.2951 C.2       1 <0>         0.3551
     19 O4          1.1799    0.3205    2.1588 O.2       1 <0>        -0.3621
     20 C14        -0.4062    1.5958    1.1577 C.2       1 <0>        -0.2330
     21 C15         0.2192    1.3725   -0.1937 C.3       1 <0>         0.0714
     22 H2          0.5034    0.3248   -0.2914 H         1 <0>         0.1351
     23 C16         1.4466    2.2370   -0.3247 C.ar      1 <0>        -0.1213
     24 C17         2.6909    1.6623   -0.5358 C.ar      1 <0>        -0.0604
     25 C18         3.7921    2.4965   -0.6501 C.ar      1 <0>        -0.1932
     26 C19         3.6146    3.8638   -0.5507 C.ar      1 <0>        -0.0511
     27 N2          2.4161    4.3754   -0.3496 N.ar      1 <0>        -0.1687
     28 C20         1.3456    3.6126   -0.2417 C.ar      1 <0>        -0.0394
     29 N3         -2.7207    2.7840   -2.0311 N.pl3     1 <0>        -0.3869
     30 H3          2.7406   -0.4686   -3.9401 H         1 <0>         0.0862
     31 H4          1.6475   -1.8426   -3.6482 H         1 <0>         0.0850
     32 H5          1.9671   -1.2976   -5.3122 H         1 <0>         0.0867
     33 H6         -0.2535   -0.5180   -4.5314 H         1 <0>         0.0820
     34 H7          0.8396    0.8561   -4.8234 H         1 <0>         0.0872
     35 H8         -3.7170    3.8072    1.9885 H         1 <0>         0.1488
     36 H9         -4.6162    4.0957    4.2433 H         1 <0>         0.1387
     37 H10        -3.5241    3.0252    6.1675 H         1 <0>         0.1380
     38 H11        -1.5141    1.6501    5.8558 H         1 <0>         0.1418
     39 H12         2.7994    0.5903   -0.6090 H         1 <0>         0.1475
     40 H13         4.7763    2.0835   -0.8152 H         1 <0>         0.1351
     41 H14         4.4674    4.5205   -0.6390 H         1 <0>         0.1549
     42 H15         0.3795    4.0682   -0.0823 H         1 <0>         0.1540
     43 H16        -2.9544    2.1076   -2.6859 H         1 <0>         0.2750
     44 H17        -3.1010    3.6740   -2.0963 H         1 <0>         0.2292
@<TRIPOS>BOND
     1    1    2 1
     2    1   30 1
     3    1   31 1
     4    1   32 1
     5    2    3 1
     6    2   33 1
     7    2   34 1
     8    3    4 1
     9    4    5 2
    10    4    6 1
    11    6   21 1
    12    6    7 2
    13    7    8 1
    14    7   29 1
    15    8    9 1
    16    9   20 2
    17    9   10 1
    18   10   15 ar
    19   10   11 ar
    20   11   12 ar
    21   11   35 1
    22   12   13 ar
    23   12   36 1
    24   13   14 ar
    25   13   37 1
    26   14   15 ar
    27   14   38 1
    28   15   16 1
    29   16   17 1
    30   16   18 am
    31   18   19 2
    32   18   20 1
    33   20   21 1
    34   21   22 1
    35   21   23 1
    36   23   28 ar
    37   23   24 ar
    38   24   25 ar
    39   24   39 1
    40   25   26 ar
    41   25   40 1
    42   26   27 ar
    43   26   41 1
    44   27   28 ar
    45   28   42 1
    46   29   43 1
    47   29   44 1
@<TRIPOS>MOLECULE
ZINC04386416
   44    47     0     0     0
SMALL
USER_CHARGES

@<TRIPOS>ATOM
      1 C1          1.8408   -0.9865   -4.2755 C.3       1 <0>        -0.2147
      2 C2          0.6482   -0.0319   -4.1899 C.3       1 <0>        -0.0062
      3 O1          0.4759    0.3948   -2.8370 O.3       1 <0>        -0.2660
      4 C3         -0.5417    1.2472   -2.5878 C.2       1 <0>         0.3865
      5 O2         -1.2627    1.6173   -3.4972 O.2       1 <0>        -0.4047
      6 C4         -0.7683    1.7065   -1.2816 C.2       1 <0>        -0.3368
      7 C5         -1.8697    2.4557   -1.0177 C.2       1 <0>         0.3040
      8 O3         -2.1245    2.9174    0.2186 O.3       1 <0>        -0.1495
      9 C6         -1.5336    2.3455    1.2867 C.ar      1 <0>         0.1820
     10 C7         -2.1004    2.5382    2.6292 C.ar      1 <0>        -0.1323
     11 C8         -3.2477    3.3106    2.8254 C.ar      1 <0>        -0.0783
     12 C9         -3.7493    3.4699    4.0868 C.ar      1 <0>        -0.1557
     13 C10        -3.1274    2.8727    5.1743 C.ar      1 <0>        -0.0936
     14 C11        -1.9978    2.1018    5.0021 C.ar      1 <0>        -0.1219
     15 C12        -1.4670    1.9315    3.7278 C.ar      1 <0>         0.0944
     16 N1         -0.3298    1.1770    3.5258 N.ar      1 <0>        -0.2435
     17 H1          1.4382    0.2963    1.1930 H         1 <0>         0.2709
     18 C13         0.1820    1.0081    2.2955 C.ar      1 <0>         0.2371
     19 O4          1.1834    0.3255    2.1596 O.3       1 <0>        -0.1799
     20 C14        -0.4135    1.5853    1.1561 C.ar      1 <0>        -0.3203
     21 C15         0.2077    1.3559   -0.1962 C.3       1 <0>         0.0513
     22 H2          0.4938    0.3082   -0.2892 H         1 <0>         0.1060
     23 C16         1.4329    2.2222   -0.3362 C.ar      1 <0>        -0.1484
     24 C17         2.6776    1.6489   -0.5484 C.ar      1 <0>        -0.0927
     25 C18         3.7767    2.4847   -0.6711 C.ar      1 <0>        -0.1843
     26 C19         3.5967    3.8521   -0.5785 C.ar      1 <0>        -0.0417
     27 N2          2.3979    4.3624   -0.3760 N.ar      1 <0>        -0.1584
     28 C20         1.3293    3.5980   -0.2603 C.ar      1 <0>        -0.0201
     29 N3         -2.7392    2.7482   -2.0338 N.pl3     1 <0>        -0.3830
     30 H3          2.7417   -0.4736   -3.9387 H         1 <0>         0.0843
     31 H4          1.6581   -1.8540   -3.6415 H         1 <0>         0.0833
     32 H5          1.9723   -1.3120   -5.3075 H         1 <0>         0.0898
     33 H6         -0.2526   -0.5448   -4.5267 H         1 <0>         0.0844
     34 H7          0.8310    0.8356   -4.8240 H         1 <0>         0.0889
     35 H8         -3.7365    3.7792    1.9841 H         1 <0>         0.1390
     36 H9         -4.6368    4.0664    4.2386 H         1 <0>         0.1331
     37 H10        -3.5356    3.0091    6.1649 H         1 <0>         0.1347
     38 H11        -1.5240    1.6360    5.8536 H         1 <0>         0.1543
     39 H12         2.7881    0.5767   -0.6162 H         1 <0>         0.1356
     40 H13         4.7612    2.0728   -0.8373 H         1 <0>         0.1396
     41 H14         4.4479    4.5101   -0.6733 H         1 <0>         0.1614
     42 H15         0.3628    4.0525   -0.1000 H         1 <0>         0.1632
     43 H16        -2.9691    2.0683   -2.6863 H         1 <0>         0.2761
     44 H17        -3.1255    3.6354   -2.1013 H         1 <0>         0.2320
@<TRIPOS>BOND
     1    1    2 1
     2    1   30 1
     3    1   31 1
     4    1   32 1
     5    2    3 1
     6    2   33 1
     7    2   34 1
     8    3    4 1
     9    4    5 2
    10    4    6 1
    11    6   21 1
    12    6    7 2
    13    7    8 1
    14    7   29 1
    15    8    9 1
    16    9   20 ar
    17    9   10 ar
    18   10   11 ar
    19   10   15 ar
    20   11   12 ar
    21   11   35 1
    22   12   13 ar
    23   12   36 1
    24   13   14 ar
    25   13   37 1
    26   14   15 ar
    27   14   38 1
    28   15   16 ar
    29   16   18 ar
    30   17   19 1
    31   18   19 1
    32   18   20 ar
    33   20   21 1
    34   21   22 1
    35   21   23 1
    36   23   28 ar
    37   23   24 ar
    38   24   25 ar
    39   24   39 1
    40   25   26 ar
    41   25   40 1
    42   26   27 ar
    43   26   41 1
    44   27   28 ar
    45   28   42 1
    46   29   43 1
    47   29   44 1
@<TRIPOS>MOLECULE
ZINC04387006
   39    41     0     0     0
SMALL
USER_CHARGES

@<TRIPOS>ATOM
      1 C1          3.0964    2.8024    6.7345 C.3       1 <0>        -0.0622
      2 O1          3.4732    2.7511    5.3570 O.3       1 <0>        -0.2109
      3 C2          2.5969    2.1656    4.4991 C.ar      1 <0>         0.0966
      4 C3          1.3988    1.6509    4.9733 C.ar      1 <0>        -0.2209
      5 C4          0.5100    1.0559    4.0994 C.ar      1 <0>        -0.0856
      6 C5          0.8135    0.9725    2.7528 C.ar      1 <0>        -0.1705
      7 C6          2.0064    1.4849    2.2778 C.ar      1 <0>        -0.0404
      8 C7          2.9009    2.0767    3.1486 C.ar      1 <0>        -0.1402
      9 C8          2.3340    1.3923    0.8097 C.3       1 <0>         0.0040
     10 H1          3.3076    1.8462    0.6253 H         1 <0>         0.1337
     11 C9          1.2653    2.1305    0.0014 C.3       1 <0>        -0.1773
     12 C10        -0.0162    1.3411    0.0094 C.2       1 <0>         0.3184
     13 O2         -1.0788    1.9251    0.0176 O.2       1 <0>        -0.3345
     14 N1          0.0021   -0.0041    0.0020 N.am      1 <0>        -0.3011
     15 C11         1.2029   -0.6938    0.0057 C.2       1 <0>         0.2113
     16 C12         2.3675   -0.0531    0.3935 C.2       1 <0>        -0.3038
     17 C13         3.5695   -0.7663    0.3918 C.2       1 <0>         0.3508
     18 O3          4.6128   -0.2296    0.7290 O.2       1 <0>        -0.3598
     19 N2          3.5528   -2.0617    0.0099 N.am      1 <0>        -0.2726
     20 H2          4.4012   -2.5910    0.0013 H         1 <0>         0.2618
     21 C14         2.3813   -2.6477   -0.3636 C.2       1 <0>         0.0225
     22 N3          1.2462   -1.9784   -0.3632 N.2       1 <0>        -0.2930
     23 S1          2.3837   -4.3387   -0.8587 S.3       1 <0>         0.2516
     24 C15         0.6255   -4.5610   -1.2268 C.3       1 <0>        -0.1322
     25 C16         0.3885   -5.9436   -1.6727 C.1       1 <0>        -0.1878
     26 C17         0.1995   -7.0464   -2.0284 C.1       1 <0>        -0.1538
     27 H3          2.1675    3.3635    6.8365 H         1 <0>         0.0674
     28 H4          2.9519    1.7892    7.1096 H         1 <0>         0.0675
     29 H5          3.8824    3.2936    7.3081 H         1 <0>         0.1072
     30 H6          1.1615    1.7152    6.0250 H         1 <0>         0.1333
     31 H7         -0.4227    0.6551    4.4681 H         1 <0>         0.1297
     32 H8          0.1174    0.5065    2.0711 H         1 <0>         0.1328
     33 H9          3.8345    2.4732    2.7776 H         1 <0>         0.1506
     34 H10         1.6088    2.2534   -1.0257 H         1 <0>         0.1173
     35 H11         1.0895    3.1112    0.4434 H         1 <0>         0.1347
     36 H12        -0.8341   -0.4957   -0.0063 H         1 <0>         0.2516
     37 H13         0.0386   -4.3628   -0.3299 H         1 <0>         0.1388
     38 H14         0.3291   -3.8691   -2.0151 H         1 <0>         0.1395
     39 H15         0.0304   -8.0326   -2.3464 H         1 <0>         0.2253
@<TRIPOS>BOND
     1    1    2 1
     2    1   27 1
     3    1   28 1
     4    1   29 1
     5    2    3 1
     6    3    8 ar
     7    3    4 ar
     8    4    5 ar
     9    4   30 1
    10    5    6 ar
    11    5   31 1
    12    6    7 ar
    13    6   32 1
    14    7    8 ar
    15    7    9 1
    16    8   33 1
    17    9   10 1
    18    9   16 1
    19    9   11 1
    20   11   12 1
    21   11   34 1
    22   11   35 1
    23   12   13 2
    24   12   14 am
    25   14   15 1
    26   14   36 1
    27   15   22 1
    28   15   16 2
    29   16   17 1
    30   17   18 2
    31   17   19 am
    32   19   20 1
    33   19   21 1
    34   21   22 2
    35   21   23 1
    36   23   24 1
    37   24   25 1
    38   24   37 1
    39   24   38 1
    40   25   26 3
    41   26   39 1
@<TRIPOS>MOLECULE
ZINC04387006
   39    41     0     0     0
SMALL
USER_CHARGES

@<TRIPOS>ATOM
      1 C1          3.0967    2.8014    6.7353 C.3       1 <0>        -0.0625
      2 O1          3.4734    2.7503    5.3577 O.3       1 <0>        -0.2088
      3 C2          2.5970    2.1649    4.4998 C.ar      1 <0>         0.0998
      4 C3          1.3990    1.6500    4.9740 C.ar      1 <0>        -0.2196
      5 C4          0.5102    1.0551    4.1001 C.ar      1 <0>        -0.0856
      6 C5          0.8136    0.9719    2.7535 C.ar      1 <0>        -0.1743
      7 C6          2.0064    1.4845    2.2785 C.ar      1 <0>        -0.0395
      8 C7          2.9009    2.0762    3.1493 C.ar      1 <0>        -0.1354
      9 C8          2.3339    1.3921    0.8103 C.3       1 <0>        -0.0015
     10 H1          3.3075    1.8461    0.6259 H         1 <0>         0.1428
     11 C9          1.2651    2.1304    0.0022 C.3       1 <0>        -0.1774
     12 C10        -0.0164    1.3409    0.0102 C.2       1 <0>         0.3240
     13 O2         -1.0790    1.9249    0.0186 O.2       1 <0>        -0.3292
     14 N1          0.0020   -0.0043    0.0026 N.am      1 <0>        -0.3297
     15 C11         1.2028   -0.6939    0.0061 C.2       1 <0>         0.1707
     16 C12         2.3674   -0.0532    0.3939 C.2       1 <0>        -0.2694
     17 C13         3.5694   -0.7665    0.3924 C.2       1 <0>         0.3174
     18 O3          4.6127   -0.2298    0.7296 O.2       1 <0>        -0.3190
     19 N2          3.5526   -2.0620    0.0111 N.2       1 <0>        -0.2396
     20 H2          0.4035   -2.4387   -0.6425 H         1 <0>         0.2420
     21 C14         2.3811   -2.6480   -0.3624 C.2       1 <0>        -0.0245
     22 N3          1.2461   -1.9786   -0.3624 N.pl3     1 <0>        -0.2357
     23 S1          2.3834   -4.3393   -0.8568 S.3       1 <0>         0.3296
     24 C15         0.6252   -4.5615   -1.2252 C.3       1 <0>        -0.1914
     25 C16         0.3881   -5.9442   -1.6706 C.1       1 <0>        -0.1879
     26 C17         0.1991   -7.0472   -2.0258 C.1       1 <0>        -0.1337
     27 H3          2.1678    3.3624    6.8374 H         1 <0>         0.0666
     28 H4          2.9523    1.7881    7.1102 H         1 <0>         0.0684
     29 H5          3.8827    3.2925    7.3089 H         1 <0>         0.1084
     30 H6          1.1618    1.7142    6.0258 H         1 <0>         0.1341
     31 H7         -0.4225    0.6542    4.4688 H         1 <0>         0.1281
     32 H8          0.1174    0.5060    2.0718 H         1 <0>         0.1254
     33 H9          3.8345    2.4728    2.7783 H         1 <0>         0.1535
     34 H10         1.6085    2.2535   -1.0249 H         1 <0>         0.1197
     35 H11         1.0893    3.1110    0.4444 H         1 <0>         0.1372
     36 H12        -0.8342   -0.4959   -0.0057 H         1 <0>         0.2372
     37 H13         0.0381   -4.3628   -0.3285 H         1 <0>         0.1151
     38 H14         0.3291   -3.8699   -2.0139 H         1 <0>         0.1158
     39 H15         0.0299   -8.0335   -2.3434 H         1 <0>         0.2293
@<TRIPOS>BOND
     1    1    2 1
     2    1   27 1
     3    1   28 1
     4    1   29 1
     5    2    3 1
     6    3    8 ar
     7    3    4 ar
     8    4    5 ar
     9    4   30 1
    10    5    6 ar
    11    5   31 1
    12    6    7 ar
    13    6   32 1
    14    7    8 ar
    15    7    9 1
    16    8   33 1
    17    9   10 1
    18    9   16 1
    19    9   11 1
    20   11   12 1
    21   11   34 1
    22   11   35 1
    23   12   13 2
    24   12   14 am
    25   14   15 1
    26   14   36 1
    27   15   16 2
    28   15   22 1
    29   16   17 1
    30   17   19 1
    31   17   18 2
    32   19   21 2
    33   20   22 1
    34   21   23 1
    35   21   22 1
    36   23   24 1
    37   24   25 1
    38   24   37 1
    39   24   38 1
    40   25   26 3
    41   26   39 1
@<TRIPOS>MOLECULE
ZINC04387006
   39    41     0     0     0
SMALL
USER_CHARGES

@<TRIPOS>ATOM
      1 C1          3.1014    2.7932    6.7407 C.3       1 <0>        -0.0631
      2 O1          3.4767    2.7440    5.3627 O.3       1 <0>        -0.2119
      3 C2          2.5997    2.1592    4.5050 C.ar      1 <0>         0.1050
      4 C3          1.4025    1.6431    4.9798 C.ar      1 <0>        -0.2155
      5 C4          0.5130    1.0488    4.1061 C.ar      1 <0>        -0.0771
      6 C5          0.8150    0.9675    2.7591 C.ar      1 <0>        -0.1578
      7 C6          2.0071    1.4812    2.2834 C.ar      1 <0>        -0.0556
      8 C7          2.9023    2.0723    3.1540 C.ar      1 <0>        -0.1632
      9 C8          2.3331    1.3908    0.8148 C.3       1 <0>        -0.0100
     10 H1          3.3063    1.8455    0.6300 H         1 <0>         0.0903
     11 C9          1.2630    2.1293    0.0081 C.3       1 <0>        -0.1705
     12 C10        -0.0181    1.3392    0.0171 C.2       1 <0>         0.3189
     13 O2         -1.0810    1.9226    0.0273 O.2       1 <0>        -0.3320
     14 N1          0.0011   -0.0058    0.0080 N.am      1 <0>        -0.3030
     15 C11         1.2022   -0.6950    0.0099 C.ar      1 <0>         0.2438
     16 C12         2.3670   -0.0540    0.3966 C.ar      1 <0>        -0.3943
     17 C13         3.5697   -0.7660    0.3908 C.ar      1 <0>         0.2690
     18 O3          4.6131   -0.2290    0.7271 O.3       1 <0>        -0.1703
     19 N2          3.5530   -2.0614    0.0089 N.ar      1 <0>        -0.2632
     20 H2          4.4333    0.7230    0.9747 H         1 <0>         0.2742
     21 C14         2.3811   -2.6480   -0.3624 C.ar      1 <0>        -0.0002
     22 N3          1.2457   -1.9793   -0.3603 N.ar      1 <0>        -0.3186
     23 S1          2.3834   -4.3393   -0.8567 S.3       1 <0>         0.3114
     24 C15         0.6251   -4.5617   -1.2243 C.3       1 <0>        -0.1590
     25 C16         0.3879   -5.9445   -1.6695 C.1       1 <0>        -0.1756
     26 C17         0.1988   -7.0475   -2.0246 C.1       1 <0>        -0.1713
     27 H3          2.1723    3.3536    6.8445 H         1 <0>         0.0698
     28 H4          2.9579    1.7794    7.1146 H         1 <0>         0.0701
     29 H5          3.8878    3.2840    7.3141 H         1 <0>         0.1105
     30 H6          1.1663    1.7058    6.0319 H         1 <0>         0.1381
     31 H7         -0.4190    0.6470    4.4753 H         1 <0>         0.1361
     32 H8          0.1184    0.5020    2.0775 H         1 <0>         0.1407
     33 H9          3.8352    2.4698    2.7825 H         1 <0>         0.1357
     34 H10         1.6050    2.2534   -1.0194 H         1 <0>         0.1195
     35 H11         1.0873    3.1095    0.4512 H         1 <0>         0.1348
     36 H12        -0.8349   -0.4978    0.0000 H         1 <0>         0.2566
     37 H13         0.0384   -4.3631   -0.3273 H         1 <0>         0.1324
     38 H14         0.3284   -3.8702   -2.0128 H         1 <0>         0.1333
     39 H15         0.0297   -8.0339   -2.3421 H         1 <0>         0.2221
@<TRIPOS>BOND
     1    1    2 1
     2    1   27 1
     3    1   28 1
     4    1   29 1
     5    2    3 1
     6    3    8 ar
     7    3    4 ar
     8    4    5 ar
     9    4   30 1
    10    5    6 ar
    11    5   31 1
    12    6    7 ar
    13    6   32 1
    14    7    8 ar
    15    7    9 1
    16    8   33 1
    17    9   10 1
    18    9   16 1
    19    9   11 1
    20   11   12 1
    21   11   34 1
    22   11   35 1
    23   12   13 2
    24   12   14 am
    25   14   15 1
    26   14   36 1
    27   15   16 ar
    28   15   22 ar
    29   16   17 ar
    30   17   19 ar
    31   17   18 1
    32   18   20 1
    33   19   21 ar
    34   21   23 1
    35   21   22 ar
    36   23   24 1
    37   24   25 1
    38   24   37 1
    39   24   38 1
    40   25   26 3
    41   26   39 1
@<TRIPOS>MOLECULE
ZINC04387106
   44    47     0     0     0
SMALL
USER_CHARGES

@<TRIPOS>ATOM
      1 C1          4.4875   -1.0717   -0.0465 C.3       1 <0>        -0.0648
      2 O1          4.8075    0.3210   -0.0426 O.3       1 <0>        -0.1968
      3 C2          3.7649    1.1940   -0.0279 C.ar      1 <0>         0.1110
      4 C3          2.4620    0.7194   -0.0176 C.ar      1 <0>        -0.2140
      5 C4          1.4016    1.6060   -0.0027 C.ar      1 <0>         0.0167
      6 C5          1.6349    2.9685   -0.0033 C.ar      1 <0>        -0.2471
      7 C6          2.9349    3.4512   -0.0074 C.ar      1 <0>         0.1082
      8 C7          4.0038    2.5631   -0.0229 C.ar      1 <0>         0.0118
      9 O2          5.2810    3.0329   -0.0334 O.3       1 <0>        -0.2603
     10 O3          3.1634    4.7918   -0.0024 O.3       1 <0>        -0.1969
     11 C8          2.0174    5.6452    0.0136 C.3       1 <0>        -0.0630
     12 C9         -0.0127    1.0858    0.0080 C.3       1 <0>         0.0015
     13 H1          0.0021   -0.0041    0.0020 H         1 <0>         0.1187
     14 C10        -0.7508    1.5919   -1.2354 C.3       1 <0>        -0.2087
     15 C11        -2.2351    1.4060   -0.9878 C.2       1 <0>         0.3209
     16 O4         -2.9231    0.7449   -1.7291 O.2       1 <0>        -0.2572
     17 O5         -2.7499    2.0145    0.0996 O.3       1 <0>        -0.1965
     18 C12        -2.0084    1.9869    1.2309 C.2       1 <0>         0.1756
     19 C13        -0.7158    1.5708    1.2510 C.2       1 <0>        -0.2635
     20 C14         0.0063    1.5869    2.4642 C.2       1 <0>         0.3516
     21 O6          1.1701    1.2223    2.4633 O.2       1 <0>        -0.3509
     22 N1         -0.5466    1.9900    3.6186 N.am      1 <0>        -0.2845
     23 H2          0.0015    1.9846    4.4550 H         1 <0>         0.2584
     24 C15        -1.8590    2.4117    3.6698 C.ar      1 <0>         0.1125
     25 C16        -2.6263    2.4260    2.4926 C.ar      1 <0>        -0.1214
     26 C17        -3.9552    2.8544    2.5317 C.ar      1 <0>        -0.0504
     27 C18        -4.5023    3.2556    3.7185 C.ar      1 <0>        -0.1689
     28 C19        -3.7489    3.2417    4.8835 C.ar      1 <0>        -0.0658
     29 C20        -2.4349    2.8239    4.8664 C.ar      1 <0>        -0.1864
     30 H3          3.9141   -1.3153    0.8479 H         1 <0>         0.0760
     31 H4          3.8966   -1.3063   -0.9320 H         1 <0>         0.0628
     32 H5          5.4076   -1.6560   -0.0585 H         1 <0>         0.1082
     33 H6          2.2755   -0.3444   -0.0215 H         1 <0>         0.1389
     34 H7          0.8037    3.6579    0.0039 H         1 <0>         0.1337
     35 H8          5.6411    3.1735   -0.9198 H         1 <0>         0.2171
     36 H9          2.3398    6.6865    0.0161 H         1 <0>         0.1089
     37 H10         1.4103    5.4550   -0.8714 H         1 <0>         0.0625
     38 H11         1.4279    5.4453    0.9084 H         1 <0>         0.0700
     39 H12        -0.5308    2.6478   -1.3928 H         1 <0>         0.1253
     40 H13        -0.4446    1.0156   -2.1084 H         1 <0>         0.1325
     41 H14        -4.5475    2.8689    1.6287 H         1 <0>         0.1542
     42 H15        -5.5299    3.5867    3.7495 H         1 <0>         0.1397
     43 H16        -4.1961    3.5611    5.8132 H         1 <0>         0.1382
     44 H17        -1.8561    2.8163    5.7782 H         1 <0>         0.1422
@<TRIPOS>BOND
     1    1    2 1
     2    1   30 1
     3    1   31 1
     4    1   32 1
     5    2    3 1
     6    3    8 ar
     7    3    4 ar
     8    4    5 ar
     9    4   33 1
    10    5    6 ar
    11    5   12 1
    12    6    7 ar
    13    6   34 1
    14    7    8 ar
    15    7   10 1
    16    8    9 1
    17    9   35 1
    18   10   11 1
    19   11   36 1
    20   11   37 1
    21   11   38 1
    22   12   13 1
    23   12   19 1
    24   12   14 1
    25   14   15 1
    26   14   39 1
    27   14   40 1
    28   15   16 2
    29   15   17 1
    30   17   18 1
    31   18   25 1
    32   18   19 2
    33   19   20 1
    34   20   21 2
    35   20   22 am
    36   22   23 1
    37   22   24 1
    38   24   29 ar
    39   24   25 ar
    40   25   26 ar
    41   26   27 ar
    42   26   41 1
    43   27   28 ar
    44   27   42 1
    45   28   29 ar
    46   28   43 1
    47   29   44 1
@<TRIPOS>MOLECULE
ZINC04396022
   43    45     0     0     0
SMALL
USER_CHARGES

@<TRIPOS>ATOM
      1 C1          1.7778   -0.7695   -0.5823 C.3       1 <0>        -0.2354
      2 C2          0.3856   -0.1935   -0.5480 C.2       1 <0>         0.3025
      3 O1         -0.5413   -0.8193   -1.0174 O.2       1 <0>        -0.3558
      4 N1          0.1705    1.0169    0.0044 N.am      1 <0>        -0.3290
      5 C3         -1.1072    1.5884   -0.0371 C.ar      1 <0>         0.0498
      6 C4         -1.2487    2.9634   -0.1734 C.ar      1 <0>        -0.1275
      7 C5         -2.5079    3.5264   -0.2193 C.ar      1 <0>        -0.1504
      8 C6         -3.6339    2.7187   -0.1189 C.ar      1 <0>         0.0238
      9 C7         -3.4921    1.3439    0.0227 C.ar      1 <0>        -0.1380
     10 C8         -2.2327    0.7808    0.0636 C.ar      1 <0>        -0.0948
     11 N2         -4.9100    3.2895   -0.1609 N.pl3     1 <0>        -0.2209
     12 C9         -5.0474    4.6221   -0.2982 C.2       1 <0>         0.1590
     13 C10        -6.3071    5.1999   -0.2333 C.2       1 <0>        -0.3754
     14 C11        -7.5236    4.3809   -0.1533 C.2       1 <0>         0.2696
     15 N3         -8.6943    4.9942   -0.0875 N.2       1 <0>        -0.3475
     16 C12        -8.7983    6.3202   -0.1039 C.2       1 <0>         0.3869
     17 O2         -9.9116    6.8115   -0.0454 O.2       1 <0>        -0.3409
     18 N4         -7.7440    7.1455   -0.1810 N.am      1 <0>        -0.3253
     19 C13        -6.4846    6.6631   -0.2476 C.2       1 <0>         0.3838
     20 O3         -5.5275    7.4118   -0.3168 O.2       1 <0>        -0.3545
     21 C14        -7.9623    8.5941   -0.1927 C.3       1 <0>         0.0714
     22 C15        -8.1214    9.0667   -1.6149 C.2       1 <0>        -0.0868
     23 C16        -9.2814    9.1516   -2.2905 C.2       1 <0>        -0.1844
     24 C17        -8.9694    9.6390   -3.5804 C.2       1 <0>        -0.2273
     25 C18        -7.6374    9.8227   -3.6159 C.2       1 <0>        -0.0985
     26 O4         -7.1297    9.4799   -2.4207 O.3       1 <0>        -0.0458
     27 O5         -7.4489    3.0334   -0.1411 O.3       1 <0>        -0.2747
     28 H1          2.4722   -0.0694   -0.1178 H         1 <0>         0.0796
     29 H2          1.7942   -1.7132   -0.0371 H         1 <0>         0.1158
     30 H3          2.0740   -0.9424   -1.6170 H         1 <0>         0.1183
     31 H4          0.8999    1.4903    0.4343 H         1 <0>         0.2353
     32 H5         -0.3733    3.5916   -0.2473 H         1 <0>         0.1402
     33 H6         -2.6180    4.5951   -0.3293 H         1 <0>         0.1424
     34 H7         -4.3672    0.7159    0.1010 H         1 <0>         0.1427
     35 H8         -2.1224   -0.2879    0.1737 H         1 <0>         0.1750
     36 H9         -5.6961    2.7255   -0.0912 H         1 <0>         0.2718
     37 H10        -4.1770    5.2410   -0.4588 H         1 <0>         0.1890
     38 H11        -8.8645    8.8301    0.3716 H         1 <0>         0.1393
     39 H12        -7.1075    9.0940    0.2628 H         1 <0>         0.1228
     40 H13       -10.2629    8.8969   -1.9187 H         1 <0>         0.1707
     41 H14        -9.6668    9.8278   -4.3832 H         1 <0>         0.1537
     42 H15        -7.0724   10.1878   -4.4609 H         1 <0>         0.1944
     43 H16        -8.3076    2.5923   -0.0864 H         1 <0>         0.2751
@<TRIPOS>BOND
     1    1    2 1
     2    1   28 1
     3    1   29 1
     4    1   30 1
     5    2    3 2
     6    2    4 am
     7    4    5 1
     8    4   31 1
     9    5   10 ar
    10    5    6 ar
    11    6    7 ar
    12    6   32 1
    13    7    8 ar
    14    7   33 1
    15    8    9 ar
    16    8   11 1
    17    9   10 ar
    18    9   34 1
    19   10   35 1
    20   11   12 1
    21   11   36 1
    22   12   13 2
    23   12   37 1
    24   13   19 1
    25   13   14 1
    26   14   15 2
    27   14   27 1
    28   15   16 1
    29   16   17 2
    30   16   18 am
    31   18   19 am
    32   18   21 1
    33   19   20 2
    34   21   22 1
    35   21   38 1
    36   21   39 1
    37   22   26 1
    38   22   23 2
    39   23   24 1
    40   23   40 1
    41   24   25 2
    42   24   41 1
    43   25   26 1
    44   25   42 1
    45   27   43 1
@<TRIPOS>MOLECULE
ZINC04399775
   40    42     0     0     0
SMALL
USER_CHARGES

@<TRIPOS>ATOM
      1 C1          0.0085    5.2449    0.0788 C.3       1 <0>        -0.2056
      2 C2         -0.0107    3.7381    0.0614 C.2       1 <0>         0.1145
      3 C3          1.1769    3.0110    0.0454 C.2       1 <0>        -0.2463
      4 C4          1.1488    1.6498    0.0292 C.2       1 <0>         0.0789
      5 N1         -0.0108    0.9666    0.0282 N.pl3     1 <0>        -0.1468
      6 H1          0.0024   -0.0033    0.0165 H         1 <0>         0.2603
      7 C5         -1.2048    1.6268    0.0378 C.2       1 <0>         0.2101
      8 N2         -2.3649    0.9811    0.0424 N.2       1 <0>        -0.3418
      9 C6         -3.5190    1.6332    0.0568 C.2       1 <0>         0.0274
     10 N3         -3.6146    2.9547    0.0732 N.2       1 <0>        -0.3738
     11 C7         -2.5180    3.7230    0.0761 C.2       1 <0>         0.3407
     12 O1         -2.5968    4.9422    0.0916 O.2       1 <0>        -0.3462
     13 C8         -1.2158    3.0416    0.0605 C.2       1 <0>        -0.2918
     14 S1         -5.0077    0.6907    0.0547 S.3       1 <0>         0.3489
     15 C9         -6.2266    2.0286    0.0782 C.3       1 <0>        -0.3178
     16 C10        -7.6152    1.4430    0.0797 C.2       1 <0>         0.3154
     17 O2         -7.7659    0.2396    0.0662 O.2       1 <0>        -0.3477
     18 N4         -8.6896    2.2566    0.0960 N.am      1 <0>        -0.3217
     19 C11        -9.9771    1.7172   -0.0003 C.ar      1 <0>         0.0591
     20 C12       -10.9723    2.4086   -0.6786 C.ar      1 <0>        -0.1590
     21 C13       -12.2406    1.8708   -0.7768 C.ar      1 <0>        -0.1132
     22 C14       -12.5229    0.6504   -0.1911 C.ar      1 <0>        -0.1436
     23 C15       -11.5358   -0.0377    0.4904 C.ar      1 <0>        -0.1131
     24 C16       -10.2640    0.4920    0.5872 C.ar      1 <0>        -0.1254
     25 C17         2.4494    0.8888    0.0126 C.3       1 <0>        -0.1944
     26 H2          0.0066    5.6201   -0.9446 H         1 <0>         0.1122
     27 H3         -0.8735    5.6134    0.6026 H         1 <0>         0.1531
     28 H4          0.9063    5.5909    0.5910 H         1 <0>         0.0788
     29 H5          2.1244    3.5292    0.0461 H         1 <0>         0.1593
     30 H6         -6.0860    2.6325    0.9746 H         1 <0>         0.1421
     31 H7         -6.0969    2.6538   -0.8052 H         1 <0>         0.1441
     32 H8         -8.5703    3.2160    0.1745 H         1 <0>         0.2366
     33 H9        -10.7536    3.3639   -1.1324 H         1 <0>         0.1292
     34 H10       -13.0139    2.4061   -1.3077 H         1 <0>         0.1300
     35 H11       -13.5166    0.2339   -0.2657 H         1 <0>         0.1283
     36 H12       -11.7596   -0.9905    0.9470 H         1 <0>         0.1332
     37 H13        -9.4935   -0.0459    1.1196 H         1 <0>         0.1650
     38 H14         2.7569    0.7173   -1.0190 H         1 <0>         0.1114
     39 H15         3.2156    1.4674    0.5287 H         1 <0>         0.1136
     40 H16         2.3165   -0.0688    0.5162 H         1 <0>         0.0961
@<TRIPOS>BOND
     1    1    2 1
     2    1   26 1
     3    1   27 1
     4    1   28 1
     5    2   13 2
     6    2    3 1
     7    3    4 2
     8    3   29 1
     9    4    5 1
    10    4   25 1
    11    5    6 1
    12    5    7 1
    13    7   13 1
    14    7    8 2
    15    8    9 1
    16    9   10 2
    17    9   14 1
    18   10   11 1
    19   11   12 2
    20   11   13 1
    21   14   15 1
    22   15   16 1
    23   15   30 1
    24   15   31 1
    25   16   17 2
    26   16   18 am
    27   18   19 1
    28   18   32 1
    29   19   24 ar
    30   19   20 ar
    31   20   21 ar
    32   20   33 1
    33   21   22 ar
    34   21   34 1
    35   22   23 ar
    36   22   35 1
    37   23   24 ar
    38   23   36 1
    39   24   37 1
    40   25   38 1
    41   25   39 1
    42   25   40 1
@<TRIPOS>MOLECULE
ZINC04400600
   42    44     0     0     0
SMALL
USER_CHARGES

@<TRIPOS>ATOM
      1 C1         -3.3007   14.1966    0.5356 C.3       1 <0>        -0.2245
      2 C2         -4.5932   13.3868    0.6563 C.3       1 <0>        -0.1424
      3 C3         -4.6997   12.4174   -0.5226 C.3       1 <0>        -0.2220
      4 H1         -4.5596   12.9875   -1.4410 H         1 <0>         0.1523
      5 C4         -6.1049   11.8449   -0.5321 C.2       1 <0>         0.3205
      6 O1         -7.0789   12.5618   -0.6170 O.2       1 <0>        -0.3042
      7 N1         -6.2243   10.5014   -0.4475 N.am      1 <0>        -0.3182
      8 C5         -5.1285    9.6964   -0.3474 C.2       1 <0>         0.0288
      9 N2         -3.8843   10.1228   -0.3333 N.2       1 <0>        -0.3592
     10 C6         -3.5675   11.4146   -0.4125 C.2       1 <0>         0.3040
     11 O2         -2.4077   11.7777   -0.3973 O.2       1 <0>        -0.2815
     12 S1         -5.3906    8.0081   -0.2392 S.3       1 <0>         0.3542
     13 C7         -3.6783    7.4300   -0.1387 C.3       1 <0>        -0.3055
     14 C8         -3.6609    5.9268   -0.0336 C.2       1 <0>         0.3121
     15 O3         -4.7036    5.3072   -0.0271 O.2       1 <0>        -0.3444
     16 N3         -2.4868    5.2708    0.0534 N.am      1 <0>        -0.3063
     17 C9         -2.4639    3.8750    0.0347 C.ar      1 <0>         0.0592
     18 C10        -3.4873    3.1708   -0.5622 C.ar      1 <0>        -0.1357
     19 C11        -3.4744    1.7794   -0.5860 C.ar      1 <0>        -0.1054
     20 C12        -2.4536    1.0762   -0.0225 C.ar      1 <0>        -0.1327
     21 C13        -1.3885    1.7563    0.5919 C.ar      1 <0>        -0.0199
     22 C14        -1.3931    3.1726    0.6271 C.ar      1 <0>        -0.0508
     23 C15        -0.3309    3.8503    1.2459 C.ar      1 <0>        -0.1250
     24 C16         0.6856    3.1399    1.8079 C.ar      1 <0>        -0.1193
     25 C17         0.6885    1.7467    1.7786 C.ar      1 <0>        -0.1249
     26 C18        -0.3246    1.0564    1.1873 C.ar      1 <0>        -0.1111
     27 H2         -3.2248   14.8872    1.3755 H         1 <0>         0.0766
     28 H3         -2.4460   13.5201    0.5431 H         1 <0>         0.1136
     29 H4         -3.3103   14.7594   -0.3978 H         1 <0>         0.0759
     30 H5         -5.4478   14.0633    0.6488 H         1 <0>         0.1036
     31 H6         -4.5835   12.8240    1.5898 H         1 <0>         0.0856
     32 H7         -7.1081   10.1018   -0.4542 H         1 <0>         0.2519
     33 H8         -3.2002    7.8613    0.7407 H         1 <0>         0.1494
     34 H9         -3.1378    7.7378   -1.0338 H         1 <0>         0.1507
     35 H10        -1.6576    5.7685    0.1289 H         1 <0>         0.2399
     36 H11        -4.3088    3.7048   -1.0164 H         1 <0>         0.1689
     37 H12        -4.2872    1.2487   -1.0594 H         1 <0>         0.1345
     38 H13        -2.4605   -0.0034   -0.0513 H         1 <0>         0.1338
     39 H14        -0.3202    4.9298    1.2764 H         1 <0>         0.1217
     40 H15         1.5018    3.6638    2.2831 H         1 <0>         0.1298
     41 H16         1.5069    1.2067    2.2313 H         1 <0>         0.1305
     42 H17        -0.3090   -0.0233    1.1718 H         1 <0>         0.1354
@<TRIPOS>BOND
     1    1    2 1
     2    1   27 1
     3    1   28 1
     4    1   29 1
     5    2    3 1
     6    2   30 1
     7    2   31 1
     8    3    4 1
     9    3   10 1
    10    3    5 1
    11    5    6 2
    12    5    7 am
    13    7    8 1
    14    7   32 1
    15    8    9 2
    16    8   12 1
    17    9   10 1
    18   10   11 2
    19   12   13 1
    20   13   14 1
    21   13   33 1
    22   13   34 1
    23   14   15 2
    24   14   16 am
    25   16   17 1
    26   16   35 1
    27   17   22 ar
    28   17   18 ar
    29   18   19 ar
    30   18   36 1
    31   19   20 ar
    32   19   37 1
    33   20   21 ar
    34   20   38 1
    35   21   26 ar
    36   21   22 ar
    37   22   23 ar
    38   23   24 ar
    39   23   39 1
    40   24   25 ar
    41   24   40 1
    42   25   26 ar
    43   25   41 1
    44   26   42 1
@<TRIPOS>MOLECULE
ZINC04405560
   37    39     0     0     0
SMALL
USER_CHARGES

@<TRIPOS>ATOM
      1 C1          7.4292   -4.0409   -0.1174 C.ar      1 <0>        -0.2425
      2 C2          8.6297   -4.7210   -0.1307 C.ar      1 <0>        -0.0320
      3 C3          8.6462   -6.1035   -0.1386 C.ar      1 <0>        -0.2564
      4 C4          7.4551   -6.8177   -0.1282 C.ar      1 <0>         0.2347
      5 C5          6.2447   -6.1464   -0.1095 C.ar      1 <0>        -0.2217
      6 C6          6.2259   -4.7502   -0.1011 C.ar      1 <0>        -0.0058
      7 C7          4.9406   -4.0273   -0.0811 C.2       1 <0>        -0.0774
      8 N1          4.9261   -2.7296   -0.0733 N.2       1 <0>        -0.0163
      9 N2          3.7051   -2.0429   -0.0544 N.am      1 <0>        -0.3306
     10 C8          3.6900   -0.6952   -0.0463 C.2       1 <0>         0.3622
     11 O1          4.7363   -0.0753   -0.0555 O.2       1 <0>        -0.3279
     12 C9          2.4040    0.0281   -0.0263 C.ar      1 <0>        -0.1200
     13 C10         1.2007   -0.6820   -0.0157 C.ar      1 <0>        -0.1076
     14 C11         0.0021   -0.0041    0.0020 C.ar      1 <0>        -0.1350
     15 C12        -0.0168    1.3859    0.0097 C.ar      1 <0>         0.0309
     16 C13         1.1790    2.0997    0.0021 C.ar      1 <0>         0.0032
     17 C14         2.3859    1.4249   -0.0175 C.ar      1 <0>        -0.0622
     18 O2          1.1774    3.4610    0.0180 O.3       1 <0>        -0.2012
     19 C15        -0.0492    4.1073   -0.3389 C.3       1 <0>        -0.0511
     20 C16        -1.1942    3.4116    0.4095 C.3       1 <0>        -0.0525
     21 O3         -1.2121    2.0339    0.0189 O.3       1 <0>        -0.2064
     22 N3          9.9384   -6.8253   -0.1586 N.pl3     1 <0>         0.5703
     23 O4         10.9844   -6.2013   -0.1677 O.2       1 <0>        -0.4639
     24 O5          9.9557   -8.0431   -0.1659 O.3       1 <0>        -0.3535
     25 H1          7.4200   -2.9609   -0.1156 H         1 <0>         0.1358
     26 H2          9.5595   -4.1717   -0.1396 H         1 <0>         0.1308
     27 H3          5.3179   -6.7008   -0.1010 H         1 <0>         0.1232
     28 H4          4.0115   -4.5778   -0.0729 H         1 <0>         0.1019
     29 H5          2.8706   -2.5373   -0.0470 H         1 <0>         0.1967
     30 H6          1.2105   -1.7620   -0.0218 H         1 <0>         0.1345
     31 H7         -0.9271   -0.5546    0.0097 H         1 <0>         0.1440
     32 H8          3.3139    1.9775   -0.0255 H         1 <0>         0.1738
     33 H9         -0.0079    5.1582   -0.0525 H         1 <0>         0.1185
     34 H10        -0.2087    4.0253   -1.4140 H         1 <0>         0.0933
     35 H11        -1.0308    3.4882    1.4845 H         1 <0>         0.0945
     36 H12        -2.1429    3.8798    0.1471 H         1 <0>         0.1171
     37 O6          7.4780   -8.1765   -0.1360 O.3       1 <0>        -0.5015
@<TRIPOS>BOND
     1    1    6 ar
     2    1    2 ar
     3    1   25 1
     4    2    3 ar
     5    2   26 1
     6    3    4 ar
     7    3   22 1
     8    4    5 ar
     9    4   37 1
    10    5    6 ar
    11    5   27 1
    12    6    7 1
    13    7    8 2
    14    7   28 1
    15    8    9 1
    16    9   10 am
    17    9   29 1
    18   10   11 2
    19   10   12 1
    20   12   17 ar
    21   12   13 ar
    22   13   14 ar
    23   13   30 1
    24   14   15 ar
    25   14   31 1
    26   15   21 1
    27   15   16 ar
    28   16   17 ar
    29   16   18 1
    30   17   32 1
    31   18   19 1
    32   19   20 1
    33   19   33 1
    34   19   34 1
    35   20   21 1
    36   20   35 1
    37   20   36 1
    38   22   23 2
    39   22   24 1
@<TRIPOS>MOLECULE
ZINC04412065
   43    45     0     0     0
SMALL
USER_CHARGES

@<TRIPOS>ATOM
      1 C1         -6.0476    5.5773   -0.5371 C.3       1 <0>        -0.2405
      2 C2         -4.6605    4.9883   -0.5456 C.2       1 <0>         0.3017
      3 O1         -3.7555    5.5759   -1.0996 O.2       1 <0>        -0.3536
      4 N1         -4.4256    3.8087    0.0624 N.am      1 <0>        -0.3300
      5 C3         -3.1593    3.2167   -0.0232 C.ar      1 <0>         0.0461
      6 C4         -3.0422    1.8345   -0.0927 C.ar      1 <0>        -0.1313
      7 C5         -1.7943    1.2509   -0.1771 C.ar      1 <0>        -0.1367
      8 C6         -0.6553    2.0462   -0.1926 C.ar      1 <0>         0.0275
      9 C7         -0.7723    3.4284   -0.1173 C.ar      1 <0>        -0.1552
     10 C8         -2.0207    4.0119   -0.0382 C.ar      1 <0>        -0.0929
     11 N2          0.6096    1.4549   -0.2782 N.pl3     1 <0>        -0.2229
     12 C9          1.7150    2.2273   -0.2988 C.2       1 <0>         0.1724
     13 C10         2.9681    1.6421   -0.2754 C.2       1 <0>        -0.4204
     14 C11         4.1943    2.4540   -0.1811 C.2       1 <0>         0.3755
     15 O2          4.1368    3.6678   -0.1210 O.2       1 <0>        -0.3551
     16 N3          5.3820    1.8147   -0.1579 N.am      1 <0>        -0.3381
     17 C12         5.4599    0.4785   -0.2292 C.2       1 <0>         0.4139
     18 O3          6.5610   -0.0356   -0.2094 O.2       1 <0>        -0.3803
     19 N4          4.3878   -0.3207   -0.3216 N.am      1 <0>        -0.3017
     20 C13         3.1355    0.1799   -0.3498 C.2       1 <0>         0.3817
     21 O4          2.1703   -0.5559   -0.4347 O.2       1 <0>        -0.3794
     22 C14         4.5805   -1.7712   -0.3942 C.3       1 <0>         0.0766
     23 C15         4.7102   -2.1891   -1.8363 C.2       1 <0>        -0.0940
     24 C16         5.8578   -2.2614   -2.5342 C.2       1 <0>        -0.1808
     25 C17         5.5188   -2.6961   -3.8361 C.2       1 <0>        -0.2273
     26 C18         4.1833   -2.8556   -3.8583 C.2       1 <0>        -0.0922
     27 O5          3.6988   -2.5470   -2.6443 O.3       1 <0>        -0.0453
     28 H1         -6.3654    5.7437    0.4922 H         1 <0>         0.0962
     29 H2         -6.0427    6.5261   -1.0737 H         1 <0>         0.1215
     30 H3         -6.7379    4.8883   -1.0236 H         1 <0>         0.0980
     31 H4         -5.1336    3.3696    0.5593 H         1 <0>         0.2337
     32 H5         -3.9277    1.2163   -0.0804 H         1 <0>         0.1375
     33 H6         -1.7033    0.1762   -0.2315 H         1 <0>         0.1443
     34 H7          0.1132    4.0466   -0.1248 H         1 <0>         0.1430
     35 H8         -2.1119    5.0867    0.0162 H         1 <0>         0.1743
     36 H9          0.6914    0.4896   -0.3268 H         1 <0>         0.2860
     37 H10         1.6218    3.3027   -0.3335 H         1 <0>         0.1852
     38 H11         6.1985    2.3342   -0.0928 H         1 <0>         0.2710
     39 H12         5.4866   -2.0448    0.1463 H         1 <0>         0.1405
     40 H13         3.7239   -2.2744    0.0543 H         1 <0>         0.1283
     41 H14         6.8484   -2.0334   -2.1694 H         1 <0>         0.1699
     42 H15         6.2007   -2.8644   -4.6565 H         1 <0>         0.1561
     43 H16         3.5997   -3.1774   -4.7081 H         1 <0>         0.1971
@<TRIPOS>BOND
     1    1    2 1
     2    1   28 1
     3    1   29 1
     4    1   30 1
     5    2    3 2
     6    2    4 am
     7    4    5 1
     8    4   31 1
     9    5   10 ar
    10    5    6 ar
    11    6    7 ar
    12    6   32 1
    13    7    8 ar
    14    7   33 1
    15    8    9 ar
    16    8   11 1
    17    9   10 ar
    18    9   34 1
    19   10   35 1
    20   11   12 1
    21   11   36 1
    22   12   13 2
    23   12   37 1
    24   13   20 1
    25   13   14 1
    26   14   15 2
    27   14   16 am
    28   16   17 am
    29   16   38 1
    30   17   18 2
    31   17   19 am
    32   19   20 am
    33   19   22 1
    34   20   21 2
    35   22   23 1
    36   22   39 1
    37   22   40 1
    38   23   27 1
    39   23   24 2
    40   24   25 1
    41   24   41 1
    42   25   26 2
    43   25   42 1
    44   26   27 1
    45   26   43 1
@<TRIPOS>MOLECULE
ZINC04414852
   40    41     0     0     0
SMALL
USER_CHARGES

@<TRIPOS>ATOM
      1 C1        -11.2928    8.2540   -3.3639 C.3       1 <0>        -0.2363
      2 C2        -10.2937    7.4642   -2.5583 C.2       1 <0>         0.3011
      3 O1         -9.1292    7.4352   -2.8964 O.2       1 <0>        -0.3564
      4 N1        -10.6940    6.7901   -1.4620 N.am      1 <0>        -0.3284
      5 C3         -9.7879    5.9793   -0.7696 C.ar      1 <0>         0.0746
      6 C4        -10.2220    4.7994   -0.1779 C.ar      1 <0>        -0.1739
      7 C5         -9.3281    3.9983    0.5057 C.ar      1 <0>        -0.0979
      8 C6         -8.0000    4.3672    0.6035 C.ar      1 <0>        -0.1414
      9 C7         -7.5597    5.5453    0.0139 C.ar      1 <0>         0.0736
     10 C8         -8.4563    6.3551   -0.6687 C.ar      1 <0>        -0.1580
     11 N2         -6.2146    5.9179    0.1129 N.am      1 <0>        -0.3221
     12 C9         -5.2516    4.9751    0.1015 C.2       1 <0>         0.3012
     13 O2         -5.5531    3.8004    0.0899 O.2       1 <0>        -0.3368
     14 C10        -3.8001    5.3805    0.1030 C.3       1 <0>        -0.0257
     15 O3         -2.9657    4.1923    0.0893 O.3       1 <0>        -0.2502
     16 C11        -1.6302    4.3819    0.0889 C.2       1 <0>         0.3814
     17 O4         -1.1761    5.5101    0.0997 O.2       1 <0>        -0.3581
     18 C12        -0.7267    3.2288    0.0754 C.2       1 <0>        -0.1421
     19 C13         0.6526    3.2725    0.0738 C.2       1 <0>        -0.1078
     20 C14         1.1027    1.9491    0.0592 C.2       1 <0>        -0.2284
     21 C15         0.0153    1.1408    0.0522 C.2       1 <0>        -0.1014
     22 N3         -1.0984    1.9031    0.0560 N.pl3     1 <0>        -0.0865
     23 C16        -2.4752    1.4027    0.0448 C.3       1 <0>        -0.0789
     24 H1        -12.2796    8.1618   -2.9101 H         1 <0>         0.0782
     25 H2        -10.9975    9.3031   -3.3814 H         1 <0>         0.1129
     26 H3        -11.3241    7.8683   -4.3829 H         1 <0>         0.1165
     27 H4        -11.6102    6.8671   -1.1530 H         1 <0>         0.2331
     28 H5        -11.2592    4.5082   -0.2529 H         1 <0>         0.1292
     29 H6         -9.6678    3.0815    0.9645 H         1 <0>         0.1361
     30 H7         -7.3036    3.7388    1.1387 H         1 <0>         0.1642
     31 H8         -8.1174    7.2739   -1.1240 H         1 <0>         0.1652
     32 H9         -5.9753    6.8548    0.1898 H         1 <0>         0.2353
     33 H10        -3.5869    5.9640    0.9987 H         1 <0>         0.1098
     34 H11        -3.5900    5.9823   -0.7812 H         1 <0>         0.1149
     35 H12         1.2674    4.1604    0.0818 H         1 <0>         0.1656
     36 H13         2.1338    1.6280    0.0543 H         1 <0>         0.1533
     37 H14         0.0364    0.0611    0.0408 H         1 <0>         0.1677
     38 H15        -2.8211    1.2677    1.0697 H         1 <0>         0.0944
     39 H16        -3.1185    2.1204   -0.4642 H         1 <0>         0.1318
     40 H17        -2.5104    0.4476   -0.4793 H         1 <0>         0.0901
@<TRIPOS>BOND
     1    1    2 1
     2    1   24 1
     3    1   25 1
     4    1   26 1
     5    2    3 2
     6    2    4 am
     7    4    5 1
     8    4   27 1
     9    5   10 ar
    10    5    6 ar
    11    6    7 ar
    12    6   28 1
    13    7    8 ar
    14    7   29 1
    15    8    9 ar
    16    8   30 1
    17    9   10 ar
    18    9   11 1
    19   10   31 1
    20   11   12 am
    21   11   32 1
    22   12   13 2
    23   12   14 1
    24   14   15 1
    25   14   33 1
    26   14   34 1
    27   15   16 1
    28   16   17 2
    29   16   18 1
    30   18   22 1
    31   18   19 2
    32   19   20 1
    33   19   35 1
    34   20   21 2
    35   20   36 1
    36   21   22 1
    37   21   37 1
    38   22   23 1
    39   23   38 1
    40   23   39 1
    41   23   40 1
@<TRIPOS>MOLECULE
ZINC04429509
   37    38     0     0     0
SMALL
USER_CHARGES

@<TRIPOS>ATOM
      1 C1         -0.8851    9.6671    3.7789 C.3       1 <0>        -0.2117
      2 C2          0.1963    8.7604    3.2504 C.2       1 <0>        -0.0027
      3 N1          0.1261    8.3049    2.0352 N.2       1 <0>        -0.0073
      4 N2         -0.9550    8.6569    1.2165 N.pl3     1 <0>        -0.8073
      5 S1         -1.0444    8.0765   -0.3319 S.o2      1 <0>         2.7817
      6 O1          0.1825    8.4148   -0.9639 O.2       1 <0>        -0.8967
      7 O2         -2.3045    8.4849   -0.8465 O.2       1 <0>        -0.9122
      8 C3         -1.0891    6.3182   -0.2274 C.ar      1 <0>        -0.7719
      9 C4         -2.3031    5.6634   -0.1300 C.ar      1 <0>        -0.0131
     10 C5         -2.3415    4.2853   -0.0480 C.ar      1 <0>        -0.1544
     11 C6         -1.1591    3.5571   -0.0634 C.ar      1 <0>         0.1164
     12 C7          0.0588    4.2180   -0.1556 C.ar      1 <0>        -0.1900
     13 C8          0.0901    5.5960   -0.2426 C.ar      1 <0>         0.0023
     14 N3         -1.1946    2.1607    0.0195 N.am      1 <0>        -0.3337
     15 C9         -2.1981    1.4762   -0.5643 C.2       1 <0>         0.3017
     16 O3         -3.1169    2.0730   -1.0847 O.2       1 <0>        -0.3462
     17 C10        -2.1818   -0.0307   -0.5651 C.3       1 <0>        -0.2408
     18 C11         1.3291    8.3915    4.1082 C.2       1 <0>        -0.2343
     19 C12         2.4133    7.5822    3.8208 C.2       1 <0>        -0.1321
     20 C13         3.3590    7.3832    4.8013 C.2       1 <0>        -0.1800
     21 C14         3.1998    7.9819    6.0094 C.2       1 <0>        -0.2997
     22 S2          1.6707    8.8768    5.7920 S.3       1 <0>         0.3502
     23 H1         -1.6676    9.0670    4.2433 H         1 <0>         0.1015
     24 H2         -0.4607   10.3461    4.5185 H         1 <0>         0.1013
     25 H3         -1.3092   10.2441    2.9571 H         1 <0>         0.0904
     26 H4         -1.6510    9.2405    1.5567 H         1 <0>         0.2289
     27 H5         -3.2223    6.2303   -0.1177 H         1 <0>         0.1513
     28 H6         -3.2901    3.7745    0.0277 H         1 <0>         0.1707
     29 H7          0.9802    3.6547   -0.1633 H         1 <0>         0.1349
     30 H8          1.0367    6.1103   -0.3184 H         1 <0>         0.1566
     31 H9         -0.4969    1.6854    0.4971 H         1 <0>         0.2351
     32 H10        -3.0704   -0.4034   -1.0747 H         1 <0>         0.1217
     33 H11        -1.2905   -0.3841   -1.0836 H         1 <0>         0.0987
     34 H12        -2.1728   -0.3945    0.4623 H         1 <0>         0.0960
     35 H13         2.5154    7.1176    2.8512 H         1 <0>         0.1591
     36 H14         4.2186    6.7576    4.6114 H         1 <0>         0.1461
     37 H15         3.8386    7.9334    6.8789 H         1 <0>         0.1892
@<TRIPOS>BOND
     1    1    2 1
     2    1   23 1
     3    1   24 1
     4    1   25 1
     5    2    3 2
     6    2   18 1
     7    3    4 1
     8    4    5 1
     9    4   26 1
    10    5    6 2
    11    5    7 2
    12    5    8 1
    13    8   13 ar
    14    8    9 ar
    15    9   10 ar
    16    9   27 1
    17   10   11 ar
    18   10   28 1
    19   11   12 ar
    20   11   14 1
    21   12   13 ar
    22   12   29 1
    23   13   30 1
    24   14   15 am
    25   14   31 1
    26   15   16 2
    27   15   17 1
    28   17   32 1
    29   17   33 1
    30   17   34 1
    31   18   22 1
    32   18   19 2
    33   19   20 1
    34   19   35 1
    35   20   21 2
    36   20   36 1
    37   21   22 1
    38   21   37 1
@<TRIPOS>MOLECULE
ZINC04437605
   43    45     0     0     0
SMALL
USER_CHARGES

@<TRIPOS>ATOM
      1 C1          2.9259   -4.5360    1.0103 C.3       1 <0>        -0.0640
      2 O1          3.8623   -3.6667    0.3703 O.3       1 <0>        -0.2102
      3 C2          3.5222   -2.3555    0.2773 C.ar      1 <0>         0.1148
      4 C3          4.3889   -1.4570   -0.3339 C.ar      1 <0>        -0.1694
      5 C4          4.0494   -0.1263   -0.4305 C.ar      1 <0>        -0.0650
      6 C5          2.8281    0.3213    0.0880 C.ar      1 <0>        -0.1150
      7 C6          1.9610   -0.5873    0.7069 C.ar      1 <0>        -0.0253
      8 C7          2.3084   -1.9167    0.7933 C.ar      1 <0>        -0.2245
      9 C8          2.4607    1.7399   -0.0117 C.2       1 <0>        -0.0593
     10 C9          1.1792    2.0911   -0.2862 C.2       1 <0>        -0.0855
     11 C10         0.0799    1.1964   -0.6757 C.2       1 <0>         0.3469
     12 O2          0.1426   -0.0110   -0.8160 O.2       1 <0>        -0.2999
     13 N1         -1.0091    1.9700   -0.8534 N.am      1 <0>        -0.3023
     14 C11        -0.6880    3.2781   -0.5984 C.2       1 <0>         0.2596
     15 N2         -1.5247    4.2877   -0.6769 N.2       1 <0>        -0.2727
     16 C12        -1.0920    5.5580   -0.4055 C.ar      1 <0>         0.0315
     17 C13        -0.2909    5.8010    0.7137 C.ar      1 <0>        -0.1825
     18 C14         0.1456    7.0813    0.9889 C.ar      1 <0>        -0.1253
     19 C15        -0.2043    8.1302    0.1615 C.ar      1 <0>        -0.1027
     20 C16        -1.0036    7.9020   -0.9611 C.ar      1 <0>        -0.0942
     21 C17        -1.4447    6.6111   -1.2479 C.ar      1 <0>        -0.0650
     22 C18        -1.3765    9.0254   -1.8454 C.2       1 <0>         0.3479
     23 O3         -2.0716    8.8254   -2.8212 O.2       1 <0>        -0.3561
     24 O4         -0.9455   10.2715   -1.5694 O.3       1 <0>        -0.2677
     25 C19        -1.3506   11.3263   -2.4814 C.3       1 <0>        -0.0509
     26 N3          0.6332    3.3791   -0.2560 N.pl3     1 <0>        -0.3248
     27 H1          2.7622   -4.2025    2.0350 H         1 <0>         0.0682
     28 H2          1.9814   -4.5162    0.4666 H         1 <0>         0.0728
     29 H3          3.3198   -5.5523    1.0175 H         1 <0>         0.1086
     30 H4          5.3306   -1.8034   -0.7334 H         1 <0>         0.1451
     31 H5          4.7239    0.5711   -0.9049 H         1 <0>         0.1339
     32 H6          1.0197   -0.2466    1.1122 H         1 <0>         0.1386
     33 H7          1.6387   -2.6191    1.2672 H         1 <0>         0.1389
     34 H8          3.2106    2.5034    0.1335 H         1 <0>         0.1418
     35 H9         -1.8857    1.6503   -1.1185 H         1 <0>         0.2797
     36 H10        -0.0132    4.9854    1.3648 H         1 <0>         0.1353
     37 H11         0.7642    7.2636    1.8553 H         1 <0>         0.1338
     38 H12         0.1412    9.1292    0.3828 H         1 <0>         0.1483
     39 H13        -2.0597    6.4284   -2.1167 H         1 <0>         0.1700
     40 H14        -0.9369   12.2767   -2.1444 H         1 <0>         0.1028
     41 H15        -0.9805   11.1033   -3.4821 H         1 <0>         0.0828
     42 H16        -2.4385   11.3905   -2.5023 H         1 <0>         0.0839
     43 H17         1.1059    4.1962   -0.0329 H         1 <0>         0.2770
@<TRIPOS>BOND
     1    1    2 1
     2    1   27 1
     3    1   28 1
     4    1   29 1
     5    2    3 1
     6    3    8 ar
     7    3    4 ar
     8    4    5 ar
     9    4   30 1
    10    5    6 ar
    11    5   31 1
    12    6    7 ar
    13    6    9 1
    14    7    8 ar
    15    7   32 1
    16    8   33 1
    17    9   10 2
    18    9   34 1
    19   10   26 1
    20   10   11 1
    21   11   12 2
    22   11   13 am
    23   13   14 1
    24   13   35 1
    25   14   15 2
    26   14   26 1
    27   15   16 1
    28   16   21 ar
    29   16   17 ar
    30   17   18 ar
    31   17   36 1
    32   18   19 ar
    33   18   37 1
    34   19   20 ar
    35   19   38 1
    36   20   21 ar
    37   20   22 1
    38   21   39 1
    39   22   23 2
    40   22   24 1
    41   24   25 1
    42   25   40 1
    43   25   41 1
    44   25   42 1
    45   26   43 1
@<TRIPOS>MOLECULE
ZINC04439209
   44    45     0     0     0
SMALL
USER_CHARGES

@<TRIPOS>ATOM
      1 C1          1.1811    0.6623   -6.6009 C.3       1 <0>        -0.1843
      2 C2          1.7756    0.8757   -5.2327 C.ar      1 <0>        -0.0156
      3 C3          1.7390    2.1292   -4.6510 C.ar      1 <0>        -0.1492
      4 C4          2.2844    2.3249   -3.3960 C.ar      1 <0>        -0.0168
      5 C5          2.8655    1.2670   -2.7222 C.ar      1 <0>        -0.7646
      6 C6          2.9063    0.0145   -3.3059 C.ar      1 <0>        -0.0218
      7 C7          2.3571   -0.1822   -4.5592 C.ar      1 <0>        -0.1529
      8 S1          3.5606    1.5164   -1.1224 S.o2      1 <0>         2.7635
      9 O1          3.7738    2.9147   -0.9858 O.2       1 <0>        -0.9172
     10 O2          4.6101    0.5686   -0.9833 O.2       1 <0>        -0.9137
     11 N1          2.4006    1.1041   -0.0149 N.pl3     1 <0>        -0.8141
     12 C8          1.1925    1.8038    0.0245 C.ar      1 <0>         0.0582
     13 C9          1.1913    3.1929   -0.0179 C.ar      1 <0>        -0.1702
     14 C10        -0.0035    3.8847    0.0211 C.ar      1 <0>        -0.1015
     15 C11        -1.2003    3.1981    0.1023 C.ar      1 <0>         0.0049
     16 C12        -1.2056    1.8109    0.1388 C.ar      1 <0>         0.0815
     17 C13        -0.0085    1.1129    0.1057 C.ar      1 <0>        -0.1708
     18 O3         -2.3835    1.1372    0.2130 O.3       1 <0>        -0.2847
     19 C14        -2.5017    3.9569    0.1446 C.2       1 <0>        -0.3858
     20 C15        -2.5172    4.8608    1.3503 C.2       1 <0>         0.0906
     21 O4         -3.4775    5.5597    1.5687 O.3       1 <0>        -0.1798
     22 C16        -1.3343    4.8926    2.2835 C.3       1 <0>        -0.1786
     23 C17        -3.7927    4.1131   -0.6169 C.2       1 <0>         0.2837
     24 O5         -3.8549    4.8775   -1.5497 O.2       1 <0>        -0.2691
     25 C18        -5.0062    3.3153   -0.2143 C.3       1 <0>        -0.2634
     26 H1          1.9440    0.8364   -7.3598 H         1 <0>         0.0936
     27 H2          0.8145   -0.3610   -6.6823 H         1 <0>         0.0864
     28 H3          0.3547    1.3572   -6.7504 H         1 <0>         0.0887
     29 H4          1.2847    2.9556   -5.1773 H         1 <0>         0.1396
     30 H5          2.2561    3.3043   -2.9417 H         1 <0>         0.1526
     31 H6          3.3643   -0.8110   -2.7814 H         1 <0>         0.1450
     32 H7          2.3854   -1.1615   -5.0135 H         1 <0>         0.1365
     33 H8          2.5601    0.3765    0.6065 H         1 <0>         0.2521
     34 H9          2.1251    3.7318   -0.0810 H         1 <0>         0.1798
     35 H10        -0.0026    4.9642   -0.0116 H         1 <0>         0.1441
     36 H11        -0.0105    0.0334    0.1384 H         1 <0>         0.1436
     37 H12        -2.6843    0.9692    1.1165 H         1 <0>         0.2233
     38 H13        -4.1642    5.4147    0.8564 H         1 <0>         0.2601
     39 H14        -0.6284    5.6530    1.9495 H         1 <0>         0.1090
     40 H15        -1.6734    5.1294    3.2920 H         1 <0>         0.0952
     41 H16        -0.8456    3.9182    2.2839 H         1 <0>         0.1140
     42 H17        -4.7600    2.6859    0.6409 H         1 <0>         0.0944
     43 H18        -5.8147    3.9948    0.0556 H         1 <0>         0.0921
     44 H19        -5.3218    2.6881   -1.0480 H         1 <0>         0.1215
@<TRIPOS>BOND
     1    1    2 1
     2    1   26 1
     3    1   27 1
     4    1   28 1
     5    2    7 ar
     6    2    3 ar
     7    3    4 ar
     8    3   29 1
     9    4    5 ar
    10    4   30 1
    11    5    6 ar
    12    5    8 1
    13    6    7 ar
    14    6   31 1
    15    7   32 1
    16    8    9 2
    17    8   10 2
    18    8   11 1
    19   11   12 1
    20   11   33 1
    21   12   17 ar
    22   12   13 ar
    23   13   14 ar
    24   13   34 1
    25   14   15 ar
    26   14   35 1
    27   15   16 ar
    28   15   19 1
    29   16   17 ar
    30   16   18 1
    31   17   36 1
    32   18   37 1
    33   19   20 2
    34   19   23 1
    35   20   22 1
    36   20   21 1
    37   21   38 1
    38   22   39 1
    39   22   40 1
    40   22   41 1
    41   23   25 1
    42   23   24 2
    43   25   42 1
    44   25   43 1
    45   25   44 1
@<TRIPOS>MOLECULE
ZINC04439209
   44    45     0     0     0
SMALL
USER_CHARGES

@<TRIPOS>ATOM
      1 C1          1.1811    0.6623   -6.6009 C.3       1 <0>        -0.1841
      2 C2          1.7756    0.8757   -5.2327 C.ar      1 <0>        -0.0163
      3 C3          1.7390    2.1292   -4.6510 C.ar      1 <0>        -0.1494
      4 C4          2.2844    2.3249   -3.3960 C.ar      1 <0>        -0.0166
      5 C5          2.8655    1.2670   -2.7222 C.ar      1 <0>        -0.7639
      6 C6          2.9063    0.0145   -3.3059 C.ar      1 <0>        -0.0219
      7 C7          2.3571   -0.1822   -4.5592 C.ar      1 <0>        -0.1532
      8 S1          3.5606    1.5164   -1.1224 S.o2      1 <0>         2.7636
      9 O1          3.7738    2.9147   -0.9858 O.2       1 <0>        -0.9173
     10 O2          4.6101    0.5686   -0.9833 O.2       1 <0>        -0.9155
     11 N1          2.4006    1.1041   -0.0149 N.pl3     1 <0>        -0.8138
     12 C8          1.1925    1.8038    0.0245 C.ar      1 <0>         0.0578
     13 C9          1.1913    3.1929   -0.0179 C.ar      1 <0>        -0.1696
     14 C10        -0.0035    3.8847    0.0211 C.ar      1 <0>        -0.0821
     15 C11        -1.2003    3.1981    0.1023 C.ar      1 <0>         0.0002
     16 C12        -1.2056    1.8109    0.1388 C.ar      1 <0>         0.0833
     17 C13        -0.0085    1.1129    0.1057 C.ar      1 <0>        -0.1722
     18 O3         -2.3835    1.1372    0.2130 O.3       1 <0>        -0.2868
     19 C14        -2.5017    3.9569    0.1446 C.2       1 <0>        -0.2888
     20 C15        -2.5172    4.8608    1.3503 C.2       1 <0>         0.0551
     21 O4         -1.5693    4.8863    2.0981 O.3       1 <0>        -0.1647
     22 C16        -3.7156    5.7330    1.6229 C.3       1 <0>        -0.2492
     23 C17        -3.7927    4.1131   -0.6169 C.2       1 <0>         0.3189
     24 O5         -3.8549    4.8775   -1.5497 O.2       1 <0>        -0.2847
     25 C18        -5.0062    3.3153   -0.2143 C.3       1 <0>        -0.2546
     26 H1          1.9440    0.8364   -7.3598 H         1 <0>         0.0930
     27 H2          0.8145   -0.3610   -6.6823 H         1 <0>         0.0861
     28 H3          0.3547    1.3572   -6.7504 H         1 <0>         0.0886
     29 H4          1.2847    2.9556   -5.1773 H         1 <0>         0.1392
     30 H5          2.2561    3.3043   -2.9417 H         1 <0>         0.1529
     31 H6          3.3643   -0.8110   -2.7814 H         1 <0>         0.1448
     32 H7          2.3854   -1.1615   -5.0135 H         1 <0>         0.1359
     33 H8          2.5601    0.3765    0.6065 H         1 <0>         0.2515
     34 H9          2.1251    3.7318   -0.0810 H         1 <0>         0.1780
     35 H10        -0.0026    4.9642   -0.0116 H         1 <0>         0.1436
     36 H11        -0.0105    0.0334    0.1384 H         1 <0>         0.1417
     37 H12        -2.6843    0.9692    1.1165 H         1 <0>         0.2229
     38 H13        -1.7462    5.5348    2.8384 H         1 <0>         0.2431
     39 H14        -4.4252    5.1904    2.2475 H         1 <0>         0.1001
     40 H15        -3.3961    6.6387    2.1384 H         1 <0>         0.0859
     41 H16        -4.1922    6.0006    0.6797 H         1 <0>         0.1218
     42 H17        -4.7600    2.6859    0.6409 H         1 <0>         0.0886
     43 H18        -5.8147    3.9948    0.0556 H         1 <0>         0.0936
     44 H19        -5.3218    2.6881   -1.0480 H         1 <0>         0.1145
@<TRIPOS>BOND
     1    1    2 1
     2    1   26 1
     3    1   27 1
     4    1   28 1
     5    2    7 ar
     6    2    3 ar
     7    3    4 ar
     8    3   29 1
     9    4    5 ar
    10    4   30 1
    11    5    6 ar
    12    5    8 1
    13    6    7 ar
    14    6   31 1
    15    7   32 1
    16    8    9 2
    17    8   10 2
    18    8   11 1
    19   11   12 1
    20   11   33 1
    21   12   17 ar
    22   12   13 ar
    23   13   14 ar
    24   13   34 1
    25   14   15 ar
    26   14   35 1
    27   15   16 ar
    28   15   19 1
    29   16   17 ar
    30   16   18 1
    31   17   36 1
    32   18   37 1
    33   19   20 2
    34   19   23 1
    35   20   22 1
    36   20   21 1
    37   21   38 1
    38   22   39 1
    39   22   40 1
    40   22   41 1
    41   23   25 1
    42   23   24 2
    43   25   42 1
    44   25   43 1
    45   25   44 1
@<TRIPOS>MOLECULE
ZINC04442587
   41    43     0     0     0
SMALL
USER_CHARGES

@<TRIPOS>ATOM
      1 C1         -2.2964   -5.2002   -1.8654 C.3       1 <0>        -0.0693
      2 N1         -3.1055   -4.2305   -1.1229 N.pl3     1 <0>        -0.1257
      3 C2         -4.4304   -4.3661   -0.7735 C.2       1 <0>        -0.1747
      4 C3         -4.7755   -3.2524   -0.1054 C.2       1 <0>        -0.1441
      5 N2         -3.6995   -2.4507   -0.0353 N.2       1 <0>        -0.1901
      6 C4         -2.6903   -3.0244   -0.6481 C.2       1 <0>        -0.1901
      7 S1         -1.0712   -2.3508   -0.8201 S.3       1 <0>         0.2968
      8 C5         -1.2933   -0.7746    0.0414 C.3       1 <0>        -0.2353
      9 C6          0.0015   -0.0038    0.0204 C.2       1 <0>         0.2009
     10 N3         -0.0166    1.3487    0.0244 N.pl3     1 <0>        -0.3127
     11 H1         -0.8594    1.8286    0.0364 H         1 <0>         0.2566
     12 C7          1.1797    2.0372    0.0054 C.2       1 <0>         0.2241
     13 N4          1.1918    3.3601    0.0083 N.2       1 <0>        -0.2384
     14 C8          0.0165    4.0553   -0.0805 C.ar      1 <0>        -0.0163
     15 C9         -0.5420    4.3306   -1.3309 C.ar      1 <0>        -0.1236
     16 C10        -1.7302    5.0263   -1.4149 C.ar      1 <0>        -0.2091
     17 C11        -2.3644    5.4629   -0.2603 C.ar      1 <0>         0.0736
     18 C12        -1.8103    5.1972    0.9840 C.ar      1 <0>        -0.1469
     19 C13        -0.6257    4.4968    1.0787 C.ar      1 <0>        -0.1234
     20 O1         -3.5331    6.1530   -0.3485 O.3       1 <0>        -0.2143
     21 C14        -4.0480    6.3920   -1.6599 C.3       1 <0>        -0.0619
     22 N5          2.3302    1.3468   -0.0170 N.2       1 <0>        -0.3025
     23 C15         2.3063    0.0243   -0.0197 C.2       1 <0>         0.2726
     24 N6          1.1429   -0.6430   -0.0012 N.2       1 <0>        -0.3300
     25 N7          3.4889   -0.6751   -0.0422 N.pl3     1 <0>        -0.3519
     26 H2         -1.8168   -5.8847   -1.1657 H         1 <0>         0.0944
     27 H3         -2.9367   -5.7639   -2.5439 H         1 <0>         0.0975
     28 H4         -1.5337   -4.6735   -2.4390 H         1 <0>         0.1033
     29 H5         -5.0705   -5.2074   -0.9946 H         1 <0>         0.1765
     30 H6         -5.7501   -3.0400    0.3088 H         1 <0>         0.1800
     31 H7         -1.5872   -0.9632    1.0740 H         1 <0>         0.1546
     32 H8         -2.0697   -0.1943   -0.4571 H         1 <0>         0.1372
     33 H9         -0.0467    3.9954   -2.2302 H         1 <0>         0.1400
     34 H10        -2.1654    5.2352   -2.3810 H         1 <0>         0.1339
     35 H11        -2.3076    5.5390    1.8797 H         1 <0>         0.1428
     36 H12        -0.1957    4.2899    2.0475 H         1 <0>         0.1444
     37 H13        -4.9813    6.9505   -1.5876 H         1 <0>         0.1062
     38 H14        -3.3235    6.9682   -2.2353 H         1 <0>         0.0690
     39 H15        -4.2321    5.4396   -2.1571 H         1 <0>         0.0644
     40 H16         3.4787   -1.6450   -0.0446 H         1 <0>         0.2416
     41 H17         4.3338   -0.1989   -0.0556 H         1 <0>         0.2502
@<TRIPOS>BOND
     1    1    2 1
     2    1   26 1
     3    1   27 1
     4    1   28 1
     5    2    6 1
     6    2    3 1
     7    3    4 2
     8    3   29 1
     9    4    5 1
    10    4   30 1
    11    5    6 2
    12    6    7 1
    13    7    8 1
    14    8    9 1
    15    8   31 1
    16    8   32 1
    17    9   24 2
    18    9   10 1
    19   10   11 1
    20   10   12 1
    21   12   13 2
    22   12   22 1
    23   13   14 1
    24   14   19 ar
    25   14   15 ar
    26   15   16 ar
    27   15   33 1
    28   16   17 ar
    29   16   34 1
    30   17   18 ar
    31   17   20 1
    32   18   19 ar
    33   18   35 1
    34   19   36 1
    35   20   21 1
    36   21   37 1
    37   21   38 1
    38   21   39 1
    39   22   23 2
    40   23   24 1
    41   23   25 1
    42   25   40 1
    43   25   41 1
@<TRIPOS>MOLECULE
ZINC04442588
   41    43     0     0     0
SMALL
USER_CHARGES

@<TRIPOS>ATOM
      1 C1          0.9917    6.5518    3.9603 C.3       1 <0>        -0.0703
      2 N1          0.9779    6.7905    2.5149 N.pl3     1 <0>        -0.1252
      3 C2          0.9416    8.0155    1.8874 C.2       1 <0>        -0.1725
      4 C3          0.9361    7.7782    0.5646 C.2       1 <0>        -0.1438
      5 N2          0.9734    6.4488    0.3733 N.2       1 <0>        -0.1842
      6 C4          1.0020    5.8434    1.5376 C.2       1 <0>        -0.1783
      7 S1          1.0550    4.1007    1.7922 S.3       1 <0>         0.2529
      8 C5          1.0559    3.5319    0.0739 C.3       1 <0>        -0.2281
      9 C6          1.0994    2.0258    0.0434 C.2       1 <0>         0.1962
     10 N3          2.2898    1.3841    0.0185 N.pl3     1 <0>        -0.3105
     11 H1          3.1192    1.8872    0.0208 H         1 <0>         0.2559
     12 C7          2.3094    0.0041   -0.0098 C.2       1 <0>         0.2308
     13 N4          3.4593   -0.6496   -0.0349 N.2       1 <0>        -0.2296
     14 C8          4.6358    0.0398   -0.1457 C.ar      1 <0>        -0.0015
     15 C9          5.3559    0.3871    0.9984 C.ar      1 <0>        -0.1277
     16 C10         6.5423    1.0828    0.8798 C.ar      1 <0>        -0.1551
     17 C11         7.0204    1.4371   -0.3691 C.ar      1 <0>        -0.1134
     18 C12         6.3145    1.0979   -1.5103 C.ar      1 <0>        -0.2111
     19 C13         5.1271    0.3960   -1.4086 C.ar      1 <0>         0.0611
     20 O1          4.4364    0.0572   -2.5301 O.3       1 <0>        -0.1971
     21 C14         4.9982    0.4538   -3.7827 C.3       1 <0>        -0.0642
     22 N5          1.1464   -0.6655   -0.0119 N.2       1 <0>        -0.2975
     23 C15         0.0026   -0.0018    0.0130 C.2       1 <0>         0.2696
     24 N6         -0.0144    1.3392    0.0404 N.2       1 <0>        -0.3214
     25 N7         -1.1838   -0.6950    0.0111 N.pl3     1 <0>        -0.3530
     26 H2          2.0222    6.5236    4.3141 H         1 <0>         0.0940
     27 H3          0.4557    7.3549    4.4662 H         1 <0>         0.0988
     28 H4          0.5072    5.5995    4.1759 H         1 <0>         0.1047
     29 H5          0.9171    8.9828    2.3670 H         1 <0>         0.1774
     30 H6          0.9072    8.5281   -0.2120 H         1 <0>         0.1809
     31 H7          1.9300    3.9311   -0.4405 H         1 <0>         0.1365
     32 H8          0.1508    3.8794   -0.4243 H         1 <0>         0.1630
     33 H9          4.9853    0.1123    1.9749 H         1 <0>         0.1436
     34 H10         7.0992    1.3517    1.7652 H         1 <0>         0.1288
     35 H11         7.9495    1.9811   -0.4540 H         1 <0>         0.1273
     36 H12         6.6937    1.3782   -2.4819 H         1 <0>         0.1337
     37 H13         5.9836    0.0024   -3.8982 H         1 <0>         0.0697
     38 H14         4.3494    0.1220   -4.5933 H         1 <0>         0.1083
     39 H15         5.0903    1.5395   -3.8122 H         1 <0>         0.0603
     40 H16        -2.0262   -0.2146    0.0295 H         1 <0>         0.2411
     41 H17        -1.1788   -1.6648   -0.0087 H         1 <0>         0.2499
@<TRIPOS>BOND
     1    1    2 1
     2    1   26 1
     3    1   27 1
     4    1   28 1
     5    2    6 1
     6    2    3 1
     7    3    4 2
     8    3   29 1
     9    4    5 1
    10    4   30 1
    11    5    6 2
    12    6    7 1
    13    7    8 1
    14    8    9 1
    15    8   31 1
    16    8   32 1
    17    9   24 2
    18    9   10 1
    19   10   11 1
    20   10   12 1
    21   12   13 2
    22   12   22 1
    23   13   14 1
    24   14   19 ar
    25   14   15 ar
    26   15   16 ar
    27   15   33 1
    28   16   17 ar
    29   16   34 1
    30   17   18 ar
    31   17   35 1
    32   18   19 ar
    33   18   36 1
    34   19   20 1
    35   20   21 1
    36   21   37 1
    37   21   38 1
    38   21   39 1
    39   22   23 2
    40   23   24 1
    41   23   25 1
    42   25   40 1
    43   25   41 1
@<TRIPOS>MOLECULE
ZINC04443746
   44    46     0     0     0
SMALL
USER_CHARGES

@<TRIPOS>ATOM
      1 C1          5.4250   10.9657   -0.3661 C.3       1 <0>        -0.1744
      2 C2          4.9543    9.9628    0.6554 C.ar      1 <0>        -0.0584
      3 C3          4.2288   10.3863    1.7551 C.ar      1 <0>        -0.1371
      4 C4          3.7920    9.4724    2.6980 C.ar      1 <0>        -0.0599
      5 C5          4.0778    8.1315    2.5477 C.ar      1 <0>        -0.1381
      6 C6          4.8102    7.6967    1.4402 C.ar      1 <0>         0.0074
      7 C7          5.2524    8.6257    0.4951 C.ar      1 <0>        -0.1413
      8 N1          5.0976    6.3689    1.2850 N.2       1 <0>        -0.1907
      9 C8          4.3163    5.6086    0.5497 C.2       1 <0>         0.1705
     10 C9          4.6693    4.2016    0.2733 C.2       1 <0>        -0.1576
     11 C10         3.6342    3.3311    0.0117 C.2       1 <0>         0.0017
     12 C11         2.2761    3.8785    0.0287 C.ar      1 <0>        -0.1098
     13 C12         1.1475    3.0501    0.0381 C.ar      1 <0>        -0.0904
     14 C13        -0.1000    3.6384    0.0657 C.ar      1 <0>        -0.0369
     15 N2         -0.2369    4.9517    0.0777 N.ar      1 <0>        -0.1324
     16 C14         0.7934    5.7729    0.0630 C.ar      1 <0>         0.0037
     17 C15         2.0880    5.2737    0.0339 C.ar      1 <0>         0.0423
     18 O1          3.1629    6.0963    0.0134 O.3       1 <0>        -0.1477
     19 C16         0.5648    7.2624    0.0782 C.3       1 <0>        -0.1629
     20 C17         1.2922    1.5501    0.0248 C.3       1 <0>         0.0388
     21 O2         -0.0029    0.9464    0.0448 O.3       1 <0>        -0.3548
     22 C18         6.0718    3.7471    0.2775 C.2       1 <0>         0.3651
     23 O3          6.3342    2.5823    0.0468 O.2       1 <0>        -0.3829
     24 N3          7.0632    4.6225    0.5369 N.am      1 <0>        -0.4130
     25 C19         3.0026    9.9435    3.8921 C.3       1 <0>        -0.1745
     26 H1          6.4116   11.3345   -0.0854 H         1 <0>         0.0876
     27 H2          5.4803   10.4889   -1.3448 H         1 <0>         0.0825
     28 H3          4.7237   11.7991   -0.4071 H         1 <0>         0.0825
     29 H4          4.0021   11.4350    1.8779 H         1 <0>         0.1315
     30 H5          3.7360    7.4193    3.2842 H         1 <0>         0.1386
     31 H6          5.8229    8.2972   -0.3611 H         1 <0>         0.1354
     32 H7          3.8168    2.2875   -0.1977 H         1 <0>         0.1754
     33 H8         -0.9807    3.0135    0.0772 H         1 <0>         0.1910
     34 H9          0.5303    7.6141    1.1093 H         1 <0>         0.0983
     35 H10         1.3789    7.7603   -0.4485 H         1 <0>         0.0994
     36 H11        -0.3801    7.4900   -0.4152 H         1 <0>         0.1015
     37 H12         1.8552    1.2316    0.9021 H         1 <0>         0.0798
     38 H13         1.8218    1.2442   -0.8775 H         1 <0>         0.0788
     39 H14         0.0137   -0.0204    0.0377 H         1 <0>         0.2225
     40 H15         6.8539    5.5516    0.7209 H         1 <0>         0.2460
     41 H16         7.9859    4.3235    0.5397 H         1 <0>         0.2298
     42 H17         3.6854   10.1841    4.7070 H         1 <0>         0.0885
     43 H18         2.4313   10.8318    3.6225 H         1 <0>         0.0820
     44 H19         2.3203    9.1554    4.2105 H         1 <0>         0.0822
@<TRIPOS>BOND
     1    1    2 1
     2    1   26 1
     3    1   27 1
     4    1   28 1
     5    2    7 ar
     6    2    3 ar
     7    3    4 ar
     8    3   29 1
     9    4    5 ar
    10    4   25 1
    11    5    6 ar
    12    5   30 1
    13    6    7 ar
    14    6    8 1
    15    7   31 1
    16    8    9 2
    17    9   18 1
    18    9   10 1
    19   10   11 2
    20   10   22 1
    21   11   12 1
    22   11   32 1
    23   12   17 ar
    24   12   13 ar
    25   13   14 ar
    26   13   20 1
    27   14   15 ar
    28   14   33 1
    29   15   16 ar
    30   16   17 ar
    31   16   19 1
    32   17   18 1
    33   19   34 1
    34   19   35 1
    35   19   36 1
    36   20   21 1
    37   20   37 1
    38   20   38 1
    39   21   39 1
    40   22   23 2
    41   22   24 am
    42   24   40 1
    43   24   41 1
    44   25   42 1
    45   25   43 1
    46   25   44 1
@<TRIPOS>MOLECULE
ZINC04444068
   43    46     0     0     0
SMALL
USER_CHARGES

@<TRIPOS>ATOM
      1 C1          9.5107    7.6870   -1.1668 C.3       1 <0>        -0.2114
      2 C2          8.1067    7.0805   -1.1236 C.3       1 <0>        -0.0166
      3 O1          8.1715    5.7692   -0.5592 O.3       1 <0>        -0.2128
      4 C3          7.0012    5.0866   -0.4483 C.ar      1 <0>         0.0797
      5 C4          5.8123    5.6809   -0.8802 C.ar      1 <0>        -0.1689
      6 C5          4.6236    5.0240   -0.7824 C.ar      1 <0>        -0.0921
      7 C6          4.5878    3.7299   -0.2406 C.ar      1 <0>         0.0443
      8 C7          5.7946    3.1252    0.1979 C.ar      1 <0>        -0.1423
      9 C8          7.0024    3.8271    0.0836 C.ar      1 <0>        -0.1298
     10 C9          5.7364    1.8260    0.7385 C.ar      1 <0>         0.0838
     11 N1          4.5676    1.2280    0.8144 N.ar      1 <0>        -0.1863
     12 C10         3.4484    1.8251    0.3924 C.ar      1 <0>         0.1747
     13 N2          3.4449    3.0428   -0.1286 N.ar      1 <0>        -0.2921
     14 N3          2.2693    1.1545    0.4969 N.2       1 <0>        -0.2478
     15 C11         1.1725    1.6671   -0.0200 C.2       1 <0>         0.3004
     16 N4          1.2277    2.8082   -0.7916 N.pl3     1 <0>        -0.2945
     17 H1          1.9548    2.9621   -1.4150 H         1 <0>         0.2867
     18 C12         0.1961    3.7304   -0.6382 C.ar      1 <0>         0.1163
     19 C13         0.3566    5.0701   -0.9460 C.ar      1 <0>        -0.1790
     20 C14        -0.7012    5.9419   -0.7730 C.ar      1 <0>        -0.0664
     21 C15        -1.9197    5.4859   -0.2937 C.ar      1 <0>        -0.1760
     22 C16        -2.0966    4.1539    0.0176 C.ar      1 <0>        -0.0274
     23 C17        -1.0392    3.2635   -0.1530 C.ar      1 <0>        -0.1959
     24 C18        -1.1734    1.8283    0.1562 C.2       1 <0>         0.3636
     25 O2         -2.2647    1.3363    0.3696 O.2       1 <0>        -0.3311
     26 N5         -0.0503    1.0724    0.2005 N.am      1 <0>        -0.3091
     27 H2         -0.1083    0.0925    0.3914 H         1 <0>         0.2799
     28 C19         6.9868    1.1358    1.2193 C.3       1 <0>        -0.1724
     29 H3         10.1588    7.0596   -1.7788 H         1 <0>         0.0896
     30 H4          9.4613    8.6872   -1.5973 H         1 <0>         0.0877
     31 H5          9.9122    7.7463   -0.1552 H         1 <0>         0.0900
     32 H6          7.7052    7.0212   -2.1352 H         1 <0>         0.0731
     33 H7          7.4586    7.7078   -0.5116 H         1 <0>         0.0739
     34 H8          5.8367    6.6767   -1.2976 H         1 <0>         0.1393
     35 H9          3.7130    5.4965   -1.1198 H         1 <0>         0.1425
     36 H10         7.9268    3.3769    0.4141 H         1 <0>         0.1514
     37 H11         1.3031    5.4319   -1.3197 H         1 <0>         0.1401
     38 H12        -0.5778    6.9876   -1.0129 H         1 <0>         0.1348
     39 H13        -2.7372    6.1795   -0.1633 H         1 <0>         0.1385
     40 H14        -3.0477    3.8041    0.3910 H         1 <0>         0.1571
     41 H15         7.4301    0.5732    0.3977 H         1 <0>         0.1022
     42 H16         7.6987    1.8803    1.5757 H         1 <0>         0.0924
     43 H17         6.7360    0.4545    2.0324 H         1 <0>         0.1100
@<TRIPOS>BOND
     1    1    2 1
     2    1   29 1
     3    1   30 1
     4    1   31 1
     5    2    3 1
     6    2   32 1
     7    2   33 1
     8    3    4 1
     9    4    9 ar
    10    4    5 ar
    11    5    6 ar
    12    5   34 1
    13    6    7 ar
    14    6   35 1
    15    7   13 ar
    16    7    8 ar
    17    8    9 ar
    18    8   10 ar
    19    9   36 1
    20   10   11 ar
    21   10   28 1
    22   11   12 ar
    23   12   13 ar
    24   12   14 1
    25   14   15 2
    26   15   26 1
    27   15   16 1
    28   16   17 1
    29   16   18 1
    30   18   23 ar
    31   18   19 ar
    32   19   20 ar
    33   19   37 1
    34   20   21 ar
    35   20   38 1
    36   21   22 ar
    37   21   39 1
    38   22   23 ar
    39   22   40 1
    40   23   24 1
    41   24   25 2
    42   24   26 am
    43   26   27 1
    44   28   41 1
    45   28   42 1
    46   28   43 1
@<TRIPOS>MOLECULE
ZINC04454236
   47    50     0     0     0
SMALL
USER_CHARGES

@<TRIPOS>ATOM
      1 C1          9.0113    6.1414    1.3109 C.3       1 <0>        -0.0549
      2 N1          7.5585    5.9612    1.2572 N.am      1 <0>        -0.2379
      3 C2          7.0145    4.6904    1.3527 C.2       1 <0>         0.1118
      4 C3          5.6322    4.5473    1.2984 C.2       1 <0>        -0.2492
      5 C4          4.8290    5.6917    1.1493 C.2       1 <0>         0.3990
      6 O1          3.6156    5.5902    1.0998 O.2       1 <0>        -0.3865
      7 N2          5.4158    6.9034    1.0621 N.am      1 <0>        -0.3341
      8 H1          4.8474    7.7193    0.9561 H         1 <0>         0.2827
      9 C5          6.7529    7.0306    1.1156 C.2       1 <0>         0.4112
     10 O2          7.2470    8.1387    1.0337 O.2       1 <0>        -0.3831
     11 N3          5.3751    3.1879    1.4156 N.pl3     1 <0>        -0.0906
     12 C6          6.5799    2.5709    1.5397 C.2       1 <0>         0.1096
     13 N4          7.5398    3.4724    1.4948 N.2       1 <0>        -0.2361
     14 N5          6.7680    1.2157    1.6855 N.pl3     1 <0>        -0.1595
     15 C7          6.2725    0.4784    0.4951 C.3       1 <0>        -0.1006
     16 C8          7.0141   -0.8791    0.5849 C.3       1 <0>        -0.1639
     17 C9          8.4116   -0.4756    1.1083 C.3       1 <0>        -0.1747
     18 C10         8.2064    0.8887    1.7925 C.3       1 <0>        -0.0791
     19 C11         4.0593    2.5437    1.4125 C.3       1 <0>        -0.0508
     20 C12         3.6720    2.1819   -0.0228 C.3       1 <0>         0.0637
     21 H2          4.4566    1.5699   -0.4676 H         1 <0>         0.1289
     22 C13         2.3773    1.4107   -0.0145 C.ar      1 <0>        -0.1204
     23 C14         1.1710    2.0855    0.0021 C.ar      1 <0>        -0.1129
     24 C15        -0.0167    1.3781    0.0096 C.ar      1 <0>        -0.1207
     25 C16         0.0021   -0.0041    0.0020 C.ar      1 <0>        -0.1207
     26 C17         1.2084   -0.6789   -0.0132 C.ar      1 <0>        -0.1238
     27 C18         2.3960    0.0285   -0.0217 C.ar      1 <0>        -0.1203
     28 O3          3.5093    3.3777   -0.7881 O.3       1 <0>        -0.3345
     29 H3          9.2496    7.2012    1.2211 H         1 <0>         0.1218
     30 H4          9.3895    5.7631    2.2606 H         1 <0>         0.0902
     31 H5          9.4759    5.5938    0.4908 H         1 <0>         0.0896
     32 H6          5.1940    0.3322    0.5544 H         1 <0>         0.1038
     33 H7          6.5408    1.0033   -0.4217 H         1 <0>         0.0889
     34 H8          7.0897   -1.3431   -0.3985 H         1 <0>         0.0951
     35 H9          6.5157   -1.5449    1.2895 H         1 <0>         0.0992
     36 H10         9.1133   -0.3815    0.2795 H         1 <0>         0.0922
     37 H11         8.7722   -1.2097    1.8288 H         1 <0>         0.0956
     38 H12         8.7991    1.6507    1.2864 H         1 <0>         0.1118
     39 H13         8.4966    0.8287    2.8414 H         1 <0>         0.1115
     40 H14         3.3189    3.2277    1.8272 H         1 <0>         0.1352
     41 H15         4.0967    1.6381    2.0179 H         1 <0>         0.1216
     42 H16         1.1563    3.1654    0.0077 H         1 <0>         0.1353
     43 H17        -0.9592    1.9054    0.0170 H         1 <0>         0.1347
     44 H18        -0.9258   -0.5567    0.0083 H         1 <0>         0.1326
     45 H19         1.2231   -1.7588   -0.0188 H         1 <0>         0.1322
     46 H20         3.3385   -0.4987   -0.0335 H         1 <0>         0.1261
     47 H21         2.8256    3.9716   -0.4491 H         1 <0>         0.2304
@<TRIPOS>BOND
     1    1    2 1
     2    1   29 1
     3    1   30 1
     4    1   31 1
     5    2    9 am
     6    2    3 1
     7    3   13 1
     8    3    4 2
     9    4    5 1
    10    4   11 1
    11    5    6 2
    12    5    7 am
    13    7    8 1
    14    7    9 am
    15    9   10 2
    16   11   12 1
    17   11   19 1
    18   12   13 2
    19   12   14 1
    20   14   18 1
    21   14   15 1
    22   15   16 1
    23   15   32 1
    24   15   33 1
    25   16   17 1
    26   16   34 1
    27   16   35 1
    28   17   18 1
    29   17   36 1
    30   17   37 1
    31   18   38 1
    32   18   39 1
    33   19   20 1
    34   19   40 1
    35   19   41 1
    36   20   21 1
    37   20   22 1
    38   20   28 1
    39   22   27 ar
    40   22   23 ar
    41   23   24 ar
    42   23   42 1
    43   24   25 ar
    44   24   43 1
    45   25   26 ar
    46   25   44 1
    47   26   27 ar
    48   26   45 1
    49   27   46 1
    50   28   47 1
@<TRIPOS>MOLECULE
ZINC04455842
   40    41     0     0     0
SMALL
USER_CHARGES

@<TRIPOS>ATOM
      1 C1          9.1702   10.2576   -0.1427 C.3       1 <0>        -0.0543
      2 N1          9.2556    8.7986   -0.0408 N.pl3     1 <0>        -0.3357
      3 C2         10.5639    8.1464    0.0550 C.3       1 <0>        -0.0499
      4 C3          8.0917    8.0308   -0.0350 C.ar      1 <0>         0.1414
      5 C4          6.8489    8.6550   -0.0053 C.ar      1 <0>        -0.2212
      6 C5          5.6971    7.9000    0.0005 C.ar      1 <0>        -0.0586
      7 C6          5.7780    6.5045   -0.0234 C.ar      1 <0>        -0.1168
      8 C7          7.0289    5.8807   -0.0478 C.ar      1 <0>        -0.0358
      9 C8          8.1762    6.6425   -0.0583 C.ar      1 <0>        -0.2188
     10 C9          4.5481    5.6932   -0.0167 C.2       1 <0>        -0.0896
     11 N2          4.6252    4.3968   -0.0389 N.2       1 <0>        -0.0134
     12 N3          3.4557    3.6254   -0.0326 N.am      1 <0>        -0.3152
     13 C10         3.5357    2.2802   -0.0556 C.2       1 <0>         0.3745
     14 O1          4.6222    1.7364   -0.0819 O.2       1 <0>        -0.3105
     15 C11         2.2964    1.4626   -0.0489 C.2       1 <0>         0.0086
     16 C12         2.3758    0.0819   -0.0725 C.2       1 <0>        -0.2216
     17 C13         1.1792   -0.6646   -0.0658 C.2       1 <0>         0.3224
     18 O2          1.2073   -1.8836   -0.0864 O.2       1 <0>        -0.3466
     19 N4          0.0023   -0.0044   -0.0366 N.am      1 <0>        -0.2708
     20 H1         -0.8571   -0.5156   -0.0313 H         1 <0>         0.2609
     21 C14        -0.0161    1.3572   -0.0143 C.2       1 <0>         0.0018
     22 N5          1.0982    2.0594   -0.0204 N.2       1 <0>        -0.2708
     23 S1         -1.5644    2.1977    0.0162 S.3       1 <0>         0.2241
     24 C15        -0.9898    3.9140    0.0379 C.3       1 <0>        -0.3068
     25 H2          8.1243   10.5632   -0.1139 H         1 <0>         0.0930
     26 H3          9.7047   10.7120    0.6915 H         1 <0>         0.0709
     27 H4          9.6181   10.5831   -1.0817 H         1 <0>         0.0699
     28 H5         10.9289    7.9154   -0.9458 H         1 <0>         0.0680
     29 H6         11.2671    8.8139    0.5531 H         1 <0>         0.0786
     30 H7         10.4692    7.2246    0.6289 H         1 <0>         0.0877
     31 H8          6.7871    9.7331    0.0135 H         1 <0>         0.1346
     32 H9          4.7325    8.3853    0.0239 H         1 <0>         0.1260
     33 H10         7.0954    4.8028   -0.0621 H         1 <0>         0.1587
     34 H11         9.1429    6.1614   -0.0813 H         1 <0>         0.1374
     35 H12         3.5825    6.1764    0.0067 H         1 <0>         0.1104
     36 H13         2.5885    4.0594   -0.0116 H         1 <0>         0.2202
     37 H14         3.3347   -0.4145   -0.0960 H         1 <0>         0.1954
     38 H15        -0.3776    4.0810    0.9241 H         1 <0>         0.1156
     39 H16        -0.3969    4.1100   -0.8555 H         1 <0>         0.1157
     40 H17        -1.8490    4.5845    0.0581 H         1 <0>         0.1203
@<TRIPOS>BOND
     1    1    2 1
     2    1   25 1
     3    1   26 1
     4    1   27 1
     5    2    3 1
     6    2    4 1
     7    3   28 1
     8    3   29 1
     9    3   30 1
    10    4    9 ar
    11    4    5 ar
    12    5    6 ar
    13    5   31 1
    14    6    7 ar
    15    6   32 1
    16    7    8 ar
    17    7   10 1
    18    8    9 ar
    19    8   33 1
    20    9   34 1
    21   10   11 2
    22   10   35 1
    23   11   12 1
    24   12   13 am
    25   12   36 1
    26   13   14 2
    27   13   15 1
    28   15   22 1
    29   15   16 2
    30   16   17 1
    31   16   37 1
    32   17   18 2
    33   17   19 am
    34   19   20 1
    35   19   21 1
    36   21   22 2
    37   21   23 1
    38   23   24 1
    39   24   38 1
    40   24   39 1
    41   24   40 1
@<TRIPOS>MOLECULE
ZINC04455842
   40    41     0     0     0
SMALL
USER_CHARGES

@<TRIPOS>ATOM
      1 C1         -2.6386   12.5273   -0.0189 C.3       1 <0>        -0.0553
      2 N1         -1.3600   11.8185    0.0762 N.pl3     1 <0>        -0.3333
      3 C2         -0.1095   12.5744    0.1810 C.3       1 <0>        -0.0510
      4 C3         -1.3333   10.4242    0.0669 C.ar      1 <0>         0.1463
      5 C4         -2.5252    9.7073    0.0879 C.ar      1 <0>        -0.2216
      6 C5         -2.5028    8.3302    0.0794 C.ar      1 <0>        -0.0541
      7 C6         -1.2802    7.6530    0.0489 C.ar      1 <0>        -0.1259
      8 C7         -0.0844    8.3769    0.0326 C.ar      1 <0>        -0.0320
      9 C8         -0.1149    9.7538    0.0370 C.ar      1 <0>        -0.2194
     10 C9         -1.2520    6.1797    0.0401 C.2       1 <0>        -0.0762
     11 N2         -0.1154    5.5523    0.0118 N.2       1 <0>        -0.0106
     12 N3         -0.0886    4.1516    0.0033 N.am      1 <0>        -0.3332
     13 C10         1.0911    3.5003   -0.0260 C.2       1 <0>         0.3581
     14 O1          2.1315    4.1282   -0.0452 O.2       1 <0>        -0.2806
     15 C11         1.1195    2.0171   -0.0349 C.2       1 <0>        -0.0363
     16 C12         2.3325    1.3342   -0.0666 C.2       1 <0>        -0.1593
     17 C13         2.3082   -0.0614   -0.0737 C.2       1 <0>         0.2516
     18 N4          1.1390   -0.6866   -0.0484 N.2       1 <0>        -0.2606
     19 C14         0.0027   -0.0038   -0.0194 C.2       1 <0>         0.0023
     20 N5         -0.0153    1.3194   -0.0126 N.pl3     1 <0>        -0.1910
     21 S1         -1.5244   -0.8821    0.0107 S.3       1 <0>         0.1929
     22 C15        -0.9087   -2.5840   -0.0115 C.3       1 <0>        -0.2933
     23 O2          3.4641   -0.7681   -0.1028 O.2       1 <0>        -0.3727
     24 H1         -3.4560   11.8065    0.0016 H         1 <0>         0.0930
     25 H2         -2.7376   13.2128    0.8228 H         1 <0>         0.0727
     26 H3         -2.6737   13.0899   -0.9518 H         1 <0>         0.0717
     27 H4          0.2814   12.7702   -0.8175 H         1 <0>         0.0695
     28 H5         -0.2981   13.5200    0.6892 H         1 <0>         0.0805
     29 H6          0.6185   11.9954    0.7491 H         1 <0>         0.0881
     30 H7         -3.4693   10.2312    0.1114 H         1 <0>         0.1368
     31 H8         -3.4286    7.7743    0.0965 H         1 <0>         0.1267
     32 H9          0.8620    7.8570    0.0136 H         1 <0>         0.1584
     33 H10         0.8085   10.3138    0.0211 H         1 <0>         0.1395
     34 H11        -2.1766    5.6218    0.0571 H         1 <0>         0.1106
     35 H12        -0.9190    3.6505    0.0187 H         1 <0>         0.1923
     36 H13         3.2694    1.8713   -0.0851 H         1 <0>         0.1954
     37 H14        -0.3222   -2.7464   -0.9158 H         1 <0>         0.1279
     38 H15        -0.2820   -2.7552    0.8637 H         1 <0>         0.1279
     39 H16        -1.7513   -3.2754    0.0041 H         1 <0>         0.1172
     40 H17        -0.8912    1.8014    0.0096 H         1 <0>         0.2468
@<TRIPOS>BOND
     1    1    2 1
     2    1   24 1
     3    1   25 1
     4    1   26 1
     5    2    3 1
     6    2    4 1
     7    3   27 1
     8    3   28 1
     9    3   29 1
    10    4    9 ar
    11    4    5 ar
    12    5    6 ar
    13    5   30 1
    14    6    7 ar
    15    6   31 1
    16    7    8 ar
    17    7   10 1
    18    8    9 ar
    19    8   32 1
    20    9   33 1
    21   10   11 2
    22   10   34 1
    23   11   12 1
    24   12   13 am
    25   12   35 1
    26   13   14 2
    27   13   15 1
    28   15   16 2
    29   15   20 1
    30   16   36 1
    31   16   17 1
    32   17   18 1
    33   17   23 2
    34   18   19 2
    35   19   21 1
    36   19   20 1
    37   20   40 1
    38   21   22 1
    39   22   37 1
    40   22   38 1
    41   22   39 1
@<TRIPOS>MOLECULE
ZINC04455842
   40    41     0     0     0
SMALL
USER_CHARGES

@<TRIPOS>ATOM
      1 C1         -2.6390   12.5272   -0.0327 C.3       1 <0>        -0.0543
      2 N1         -1.3603   11.8186    0.0623 N.pl3     1 <0>        -0.3360
      3 C2         -0.1098   12.5747    0.1653 C.3       1 <0>        -0.0496
      4 C3         -1.3336   10.4243    0.0548 C.ar      1 <0>         0.1413
      5 C4         -2.5254    9.7074    0.0776 C.ar      1 <0>        -0.2212
      6 C5         -2.5030    8.3302    0.0708 C.ar      1 <0>        -0.0570
      7 C6         -1.2804    7.6530    0.0402 C.ar      1 <0>        -0.1167
      8 C7         -0.0846    8.3770    0.0221 C.ar      1 <0>        -0.0365
      9 C8         -0.1152    9.7539    0.0248 C.ar      1 <0>        -0.2197
     10 C9         -1.2522    6.1797    0.0333 C.2       1 <0>        -0.0854
     11 N2         -0.1156    5.5523    0.0049 N.2       1 <0>        -0.0184
     12 N3         -0.0887    4.1516   -0.0018 N.am      1 <0>        -0.3091
     13 C10         1.0910    3.5003   -0.0312 C.2       1 <0>         0.3736
     14 O1          2.1313    4.1282   -0.0520 O.2       1 <0>        -0.3193
     15 C11         1.1194    2.0171   -0.0382 C.ar      1 <0>         0.0425
     16 C12         2.3324    1.3342   -0.0691 C.ar      1 <0>        -0.2917
     17 C13         2.3082   -0.0614   -0.0720 C.ar      1 <0>         0.2079
     18 N4          1.1390   -0.6866   -0.0484 N.ar      1 <0>        -0.2488
     19 C14         0.0027   -0.0038   -0.0211 C.ar      1 <0>        -0.0261
     20 N5         -0.0153    1.3194   -0.0151 N.ar      1 <0>        -0.2277
     21 S1         -1.5245   -0.8821    0.0080 S.3       1 <0>         0.2638
     22 C15        -0.9088   -2.5840   -0.0151 C.3       1 <0>        -0.3238
     23 O2          3.4641   -0.7681   -0.1020 O.3       1 <0>        -0.2209
     24 H1         -3.4564   11.8064   -0.0107 H         1 <0>         0.0935
     25 H2         -2.7374   13.2137    0.8082 H         1 <0>         0.0707
     26 H3         -2.6748   13.0886   -0.9662 H         1 <0>         0.0697
     27 H4          0.2804   12.7692   -0.8338 H         1 <0>         0.0676
     28 H5         -0.2980   13.5208    0.6724 H         1 <0>         0.0784
     29 H6          0.6187   11.9964    0.7336 H         1 <0>         0.0873
     30 H7         -3.4695   10.2313    0.1012 H         1 <0>         0.1348
     31 H8         -3.4288    7.7743    0.0893 H         1 <0>         0.1279
     32 H9          0.8618    7.8571    0.0031 H         1 <0>         0.1576
     33 H10         0.8082   10.3139    0.0075 H         1 <0>         0.1365
     34 H11        -2.1767    5.6218    0.0517 H         1 <0>         0.1151
     35 H12        -0.9191    3.6505    0.0148 H         1 <0>         0.2293
     36 H13         3.2693    1.8713   -0.0890 H         1 <0>         0.1697
     37 H14        -0.3220   -2.7458   -0.9193 H         1 <0>         0.1156
     38 H15        -0.2824   -2.7557    0.8602 H         1 <0>         0.1157
     39 H16        -1.7514   -3.2754   -0.0002 H         1 <0>         0.1135
     40 H17         4.2401   -0.1375   -0.1165 H         1 <0>         0.2501
@<TRIPOS>BOND
     1    1    2 1
     2    1   24 1
     3    1   25 1
     4    1   26 1
     5    2    3 1
     6    2    4 1
     7    3   27 1
     8    3   28 1
     9    3   29 1
    10    4    9 ar
    11    4    5 ar
    12    5    6 ar
    13    5   30 1
    14    6    7 ar
    15    6   31 1
    16    7    8 ar
    17    7   10 1
    18    8    9 ar
    19    8   32 1
    20    9   33 1
    21   10   11 2
    22   10   34 1
    23   11   12 1
    24   12   13 am
    25   12   35 1
    26   13   14 2
    27   13   15 1
    28   15   16 ar
    29   15   20 ar
    30   16   36 1
    31   16   17 ar
    32   17   18 ar
    33   17   23 1
    34   18   19 ar
    35   19   21 1
    36   19   20 ar
    37   21   22 1
    38   22   37 1
    39   22   38 1
    40   22   39 1
    41   23   40 1
@<TRIPOS>MOLECULE
ZINC04457821
   36    37     0     0     0
SMALL
USER_CHARGES

@<TRIPOS>ATOM
      1 C1          9.1935    4.4780   -0.0575 C.3       1 <0>        -0.2065
      2 C2          8.0292    5.4706   -0.0422 C.3       1 <0>        -0.2525
      3 S1          8.6772    7.1606   -0.0402 S.3       1 <0>         0.2208
      4 C3          7.1666    8.0675   -0.0221 C.2       1 <0>         0.0047
      5 N1          7.2070    9.4287   -0.0156 N.am      1 <0>        -0.2711
      6 H1          8.0878    9.9022   -0.0211 H         1 <0>         0.2614
      7 C4          6.0596   10.1394   -0.0018 C.2       1 <0>         0.3224
      8 O1          6.0840   11.3586    0.0042 O.2       1 <0>        -0.3457
      9 C5          4.8317    9.4453    0.0005 C.2       1 <0>        -0.2212
     10 C6          4.8516    8.0623   -0.0009 C.2       1 <0>         0.0075
     11 N2          6.0230    7.4141   -0.0147 N.2       1 <0>        -0.2726
     12 C7          3.5781    7.2991    0.0067 C.2       1 <0>         0.3746
     13 O2          2.5159    7.8894    0.0192 O.2       1 <0>        -0.3042
     14 N3          3.6000    5.9515   -0.0003 N.am      1 <0>        -0.3184
     15 N4          2.3983    5.2313    0.0068 N.2       1 <0>         0.0247
     16 C8          2.4194    3.9328    0.0001 C.2       1 <0>        -0.1132
     17 C9          1.1557    3.1754    0.0076 C.ar      1 <0>        -0.0772
     18 C10         1.1738    1.7785    0.0004 C.ar      1 <0>        -0.0962
     19 C11        -0.0126    1.0758    0.0080 C.ar      1 <0>        -0.1459
     20 C12        -1.2226    1.7488    0.0173 C.ar      1 <0>        -0.1008
     21 C13        -1.2541    3.1304    0.0299 C.ar      1 <0>        -0.1621
     22 C14        -0.0718    3.8523    0.0225 C.ar      1 <0>         0.1133
     23 O3         -0.1017    5.2100    0.0301 O.3       1 <0>        -0.2656
     24 H2          9.7951    4.6375   -0.9523 H         1 <0>         0.0883
     25 H3          9.8114    4.6291    0.8276 H         1 <0>         0.0888
     26 H4          8.8032    3.4602   -0.0587 H         1 <0>         0.0950
     27 H5          7.4276    5.3111    0.8526 H         1 <0>         0.1191
     28 H6          7.4112    5.3195   -0.9272 H         1 <0>         0.1181
     29 H7          3.8950    9.9828    0.0071 H         1 <0>         0.1954
     30 H8          4.4478    5.4803   -0.0103 H         1 <0>         0.2208
     31 H9          3.3633    3.4081   -0.0110 H         1 <0>         0.1146
     32 H10         2.1155    1.2498   -0.0114 H         1 <0>         0.1310
     33 H11         0.0021   -0.0041    0.0020 H         1 <0>         0.1333
     34 H12        -2.1473    1.1907    0.0187 H         1 <0>         0.1337
     35 H13        -2.2019    3.6481    0.0410 H         1 <0>         0.1450
     36 H14        -0.1185    5.6079   -0.8511 H         1 <0>         0.2407
@<TRIPOS>BOND
     1    1    2 1
     2    1   24 1
     3    1   25 1
     4    1   26 1
     5    2    3 1
     6    2   27 1
     7    2   28 1
     8    3    4 1
     9    4   11 2
    10    4    5 1
    11    5    6 1
    12    5    7 am
    13    7    8 2
    14    7    9 1
    15    9   10 2
    16    9   29 1
    17   10   11 1
    18   10   12 1
    19   12   13 2
    20   12   14 am
    21   14   15 1
    22   14   30 1
    23   15   16 2
    24   16   17 1
    25   16   31 1
    26   17   22 ar
    27   17   18 ar
    28   18   19 ar
    29   18   32 1
    30   19   20 ar
    31   19   33 1
    32   20   21 ar
    33   20   34 1
    34   21   22 ar
    35   21   35 1
    36   22   23 1
    37   23   36 1
@<TRIPOS>MOLECULE
ZINC04457821
   36    37     0     0     0
SMALL
USER_CHARGES

@<TRIPOS>ATOM
      1 C1         -2.0928   -3.5544    0.0104 C.3       1 <0>        -0.2078
      2 C2         -0.9099   -2.5841    0.0027 C.3       1 <0>        -0.2386
      3 S1         -1.5256   -0.8821    0.0163 S.3       1 <0>         0.1880
      4 C3          0.0021   -0.0041    0.0047 C.2       1 <0>         0.0051
      5 N1         -0.0159    1.3191    0.0107 N.pl3     1 <0>        -0.1923
      6 C4          1.1192    2.0167    0.0025 C.2       1 <0>        -0.0379
      7 C5          2.3324    1.3336   -0.0137 C.2       1 <0>        -0.1577
      8 C6          2.3080   -0.0620   -0.0208 C.2       1 <0>         0.2511
      9 N2          1.1386   -0.6871   -0.0099 N.2       1 <0>        -0.2603
     10 O1          3.4641   -0.7688   -0.0352 O.2       1 <0>        -0.3717
     11 C7          1.0909    3.5000    0.0105 C.2       1 <0>         0.3580
     12 O2          2.1316    4.1277    0.0040 O.2       1 <0>        -0.2745
     13 N3         -0.0889    4.1514    0.0248 N.am      1 <0>        -0.3366
     14 N4         -0.1157    5.5521    0.0322 N.2       1 <0>         0.0284
     15 C8         -1.2524    6.1797    0.0460 C.2       1 <0>        -0.0997
     16 C9         -1.2805    7.6528    0.0539 C.ar      1 <0>        -0.0854
     17 C10        -2.5012    8.3321    0.0629 C.ar      1 <0>        -0.0922
     18 C11        -2.5204    9.7108    0.0765 C.ar      1 <0>        -0.1453
     19 C12        -1.3346   10.4256    0.0688 C.ar      1 <0>        -0.0953
     20 C13        -0.1205    9.7655    0.0540 C.ar      1 <0>        -0.1618
     21 C14        -0.0826    8.3808    0.0464 C.ar      1 <0>         0.1169
     22 O3          1.1099    7.7313    0.0324 O.3       1 <0>        -0.2665
     23 H1         -2.6907   -3.3915    0.9071 H         1 <0>         0.0845
     24 H2         -2.7086   -3.3836   -0.8728 H         1 <0>         0.0841
     25 H3         -1.7221   -4.5794    0.0021 H         1 <0>         0.1011
     26 H4         -0.3121   -2.7471   -0.8942 H         1 <0>         0.1316
     27 H5         -0.2942   -2.7549    0.8856 H         1 <0>         0.1320
     28 H6          3.2695    1.8705   -0.0207 H         1 <0>         0.1954
     29 H7         -0.8919    1.8012    0.0216 H         1 <0>         0.2463
     30 H8         -0.9195    3.6504    0.0298 H         1 <0>         0.1929
     31 H9         -2.1772    5.6219    0.0517 H         1 <0>         0.1152
     32 H10        -3.4284    7.7782    0.0641 H         1 <0>         0.1320
     33 H11        -3.4644   10.2353    0.0884 H         1 <0>         0.1358
     34 H12        -1.3586   11.5053    0.0746 H         1 <0>         0.1361
     35 H13         0.8002   10.3301    0.0480 H         1 <0>         0.1474
     36 H14         1.4473    7.5474   -0.8550 H         1 <0>         0.2419
@<TRIPOS>BOND
     1    1    2 1
     2    1   23 1
     3    1   24 1
     4    1   25 1
     5    2    3 1
     6    2   26 1
     7    2   27 1
     8    3    4 1
     9    4    5 1
    10    4    9 2
    11    5    6 1
    12    5   29 1
    13    6   11 1
    14    6    7 2
    15    7   28 1
    16    7    8 1
    17    8    9 1
    18    8   10 2
    19   11   12 2
    20   11   13 am
    21   13   14 1
    22   13   30 1
    23   14   15 2
    24   15   16 1
    25   15   31 1
    26   16   21 ar
    27   16   17 ar
    28   17   18 ar
    29   17   32 1
    30   18   19 ar
    31   18   33 1
    32   19   20 ar
    33   19   34 1
    34   20   21 ar
    35   20   35 1
    36   21   22 1
    37   22   36 1
@<TRIPOS>MOLECULE
ZINC04457821
   36    37     0     0     0
SMALL
USER_CHARGES

@<TRIPOS>ATOM
      1 C1         -2.0929   -3.5544    0.0049 C.3       1 <0>        -0.2041
      2 C2         -0.9099   -2.5841   -0.0016 C.3       1 <0>        -0.2698
      3 S1         -1.5256   -0.8821    0.0130 S.3       1 <0>         0.2609
      4 C3          0.0021   -0.0041    0.0027 C.ar      1 <0>        -0.0240
      5 N1         -0.0159    1.3191    0.0078 N.ar      1 <0>        -0.2290
      6 C4          1.1192    2.0167   -0.0016 C.ar      1 <0>         0.0414
      7 C5          2.3324    1.3336   -0.0168 C.ar      1 <0>        -0.2919
      8 C6          2.3080   -0.0620   -0.0188 C.ar      1 <0>         0.2083
      9 N2          1.1386   -0.6871   -0.0099 N.ar      1 <0>        -0.2482
     10 O1          3.4641   -0.7688   -0.0332 O.3       1 <0>        -0.2204
     11 C7          1.0908    3.5000    0.0042 C.2       1 <0>         0.3738
     12 O2          2.1315    4.1277   -0.0041 O.2       1 <0>        -0.3128
     13 N3         -0.0889    4.1514    0.0186 N.am      1 <0>        -0.3125
     14 N4         -0.1158    5.5521    0.0240 N.2       1 <0>         0.0197
     15 C8         -1.2525    6.1797    0.0378 C.2       1 <0>        -0.1089
     16 C9         -1.2806    7.6528    0.0435 C.ar      1 <0>        -0.0770
     17 C10        -2.5013    8.3321    0.0526 C.ar      1 <0>        -0.0946
     18 C11        -2.5205    9.7109    0.0642 C.ar      1 <0>        -0.1459
     19 C12        -1.3347   10.4257    0.0543 C.ar      1 <0>        -0.1009
     20 C13        -0.1206    9.7656    0.0394 C.ar      1 <0>        -0.1632
     21 C14        -0.0827    8.3809    0.0339 C.ar      1 <0>         0.1124
     22 O3          1.1098    7.7313    0.0198 O.3       1 <0>        -0.2663
     23 H1         -2.6911   -3.3921    0.9015 H         1 <0>         0.0842
     24 H2         -2.7083   -3.3829   -0.8784 H         1 <0>         0.0839
     25 H3         -1.7222   -4.5794   -0.0040 H         1 <0>         0.0920
     26 H4         -0.3118   -2.7464   -0.8983 H         1 <0>         0.1197
     27 H5         -0.2946   -2.7555    0.8815 H         1 <0>         0.1202
     28 H6          3.2695    1.8705   -0.0254 H         1 <0>         0.1698
     29 H7          4.2402   -0.1383   -0.0381 H         1 <0>         0.2503
     30 H8         -0.9195    3.6504    0.0252 H         1 <0>         0.2298
     31 H9         -2.1772    5.6219    0.0452 H         1 <0>         0.1194
     32 H10        -3.4285    7.7782    0.0555 H         1 <0>         0.1329
     33 H11        -3.4645   10.2354    0.0761 H         1 <0>         0.1336
     34 H12        -1.3587   11.5054    0.0585 H         1 <0>         0.1333
     35 H13         0.8001   10.3302    0.0317 H         1 <0>         0.1441
     36 H14         1.4464    7.5461   -0.8676 H         1 <0>         0.2398
@<TRIPOS>BOND
     1    1    2 1
     2    1   23 1
     3    1   24 1
     4    1   25 1
     5    2    3 1
     6    2   26 1
     7    2   27 1
     8    3    4 1
     9    4    5 ar
    10    4    9 ar
    11    5    6 ar
    12    6   11 1
    13    6    7 ar
    14    7   28 1
    15    7    8 ar
    16    8    9 ar
    17    8   10 1
    18   10   29 1
    19   11   12 2
    20   11   13 am
    21   13   14 1
    22   13   30 1
    23   14   15 2
    24   15   16 1
    25   15   31 1
    26   16   21 ar
    27   16   17 ar
    28   17   18 ar
    29   17   32 1
    30   18   19 ar
    31   18   33 1
    32   19   20 ar
    33   19   34 1
    34   20   21 ar
    35   20   35 1
    36   21   22 1
    37   22   36 1
@<TRIPOS>MOLECULE
ZINC04457938
   37    39     0     0     0
SMALL
USER_CHARGES

@<TRIPOS>ATOM
      1 C1          3.9579    6.6897   -0.0006 C.3       1 <0>        -0.2140
      2 C2          2.4511    6.7062    0.0138 C.2       1 <0>        -0.0432
      3 N1          1.8129    7.8402    0.0255 N.2       1 <0>         0.0278
      4 N2          2.5266    9.0457    0.0246 N.am      1 <0>        -0.3220
      5 C3          1.8655   10.2202    0.0367 C.2       1 <0>         0.4042
      6 O1          0.6492   10.2335    0.0483 O.2       1 <0>        -0.3092
      7 C4          2.6178   11.4910    0.0358 C.2       1 <0>        -0.1595
      8 C5          2.0682   12.7950    0.0418 C.2       1 <0>        -0.1825
      9 C6          3.1298   13.6350    0.0419 C.2       1 <0>        -0.1631
     10 N3          4.2437   12.8719    0.0269 N.pl3     1 <0>        -0.0685
     11 N4          3.9290   11.6263    0.0236 N.2       1 <0>        -0.0926
     12 C7          5.6140   13.3899    0.0161 C.3       1 <0>        -0.0492
     13 C8          1.7038    5.4439    0.0147 C.2       1 <0>        -0.1765
     14 C9          2.2543    4.1762    0.0029 C.2       1 <0>         0.1322
     15 C10         1.1680    3.1714    0.0075 C.ar      1 <0>        -0.0938
     16 C11         1.1834    1.7825    0.0003 C.ar      1 <0>        -0.1097
     17 C12        -0.0126    1.0758    0.0080 C.ar      1 <0>        -0.1090
     18 C13        -1.2181    1.7446    0.0173 C.ar      1 <0>        -0.1208
     19 C14        -1.2477    3.1355    0.0295 C.ar      1 <0>        -0.0619
     20 C15        -0.0642    3.8502    0.0224 C.ar      1 <0>        -0.1290
     21 C16         0.2350    5.3083    0.0275 C.2       1 <0>         0.3138
     22 O2         -0.5751    6.2131    0.0391 O.2       1 <0>        -0.2054
     23 O3          3.5752    3.8984   -0.0101 O.3       1 <0>        -0.2231
     24 H1          4.3115    6.6908   -1.0317 H         1 <0>         0.0957
     25 H2          4.3359    7.5731    0.5140 H         1 <0>         0.0810
     26 H3          4.3164    5.7933    0.5054 H         1 <0>         0.1086
     27 H4          3.4965    9.0352    0.0154 H         1 <0>         0.2215
     28 H5          1.0222   13.0635    0.0479 H         1 <0>         0.1791
     29 H6          3.0926   14.7143    0.0478 H         1 <0>         0.1755
     30 H7          5.9439   13.5232   -1.0142 H         1 <0>         0.0948
     31 H8          5.6443   14.3484    0.5342 H         1 <0>         0.0972
     32 H9          6.2735   12.6834    0.5202 H         1 <0>         0.1100
     33 H10         2.1243    1.2525   -0.0108 H         1 <0>         0.1252
     34 H11         0.0021   -0.0041    0.0020 H         1 <0>         0.1376
     35 H12        -2.1428    1.1868    0.0190 H         1 <0>         0.1404
     36 H13        -2.1938    3.6562    0.0406 H         1 <0>         0.1522
     37 H14         3.7073    2.9072   -0.0167 H         1 <0>         0.2360
@<TRIPOS>BOND
     1    1    2 1
     2    1   24 1
     3    1   25 1
     4    1   26 1
     5    2    3 2
     6    2   13 1
     7    3    4 1
     8    4    5 am
     9    4   27 1
    10    5    6 2
    11    5    7 1
    12    7   11 2
    13    7    8 1
    14    8    9 2
    15    8   28 1
    16    9   10 1
    17    9   29 1
    18   10   11 1
    19   10   12 1
    20   12   30 1
    21   12   31 1
    22   12   32 1
    23   13   21 1
    24   13   14 2
    25   14   15 1
    26   14   23 1
    27   15   20 ar
    28   15   16 ar
    29   16   17 ar
    30   16   33 1
    31   17   18 ar
    32   17   34 1
    33   18   19 ar
    34   18   35 1
    35   19   20 ar
    36   19   36 1
    37   20   21 1
    38   21   22 2
    39   23   37 1
@<TRIPOS>MOLECULE
ZINC04457938
   37    39     0     0     0
SMALL
USER_CHARGES

@<TRIPOS>ATOM
      1 C1          3.9579    6.6897   -0.0006 C.3       1 <0>        -0.2177
      2 C2          2.4511    6.7062    0.0138 C.2       1 <0>        -0.0816
      3 N1          1.8129    7.8402    0.0255 N.2       1 <0>         0.0352
      4 N2          2.5266    9.0457    0.0246 N.am      1 <0>        -0.3201
      5 C3          1.8655   10.2202    0.0367 C.2       1 <0>         0.4062
      6 O1          0.6492   10.2335    0.0483 O.2       1 <0>        -0.3075
      7 C4          2.6178   11.4910    0.0358 C.2       1 <0>        -0.1621
      8 C5          2.0682   12.7950    0.0418 C.2       1 <0>        -0.1817
      9 C6          3.1298   13.6350    0.0419 C.2       1 <0>        -0.1614
     10 N3          4.2437   12.8719    0.0269 N.pl3     1 <0>        -0.0664
     11 N4          3.9290   11.6263    0.0236 N.2       1 <0>        -0.0907
     12 C7          5.6140   13.3899    0.0161 C.3       1 <0>        -0.0499
     13 C8          1.7038    5.4439    0.0147 C.3       1 <0>        -0.1295
     14 C9          2.2543    4.1762    0.0029 C.2       1 <0>         0.2638
     15 C10         1.1680    3.1714    0.0075 C.ar      1 <0>        -0.1258
     16 C11         1.1834    1.7825    0.0003 C.ar      1 <0>        -0.0568
     17 C12        -0.0126    1.0758    0.0080 C.ar      1 <0>        -0.1178
     18 C13        -1.2181    1.7446    0.0173 C.ar      1 <0>        -0.1085
     19 C14        -1.2477    3.1355    0.0295 C.ar      1 <0>        -0.0640
     20 C15        -0.0642    3.8502    0.0224 C.ar      1 <0>        -0.1447
     21 C16         0.2350    5.3083    0.0275 C.2       1 <0>         0.2795
     22 O2         -0.5751    6.2131    0.0391 O.2       1 <0>        -0.2021
     23 O3          3.5752    3.8984   -0.0101 O.2       1 <0>        -0.3347
     24 H1          4.3115    6.6908   -1.0317 H         1 <0>         0.1053
     25 H2          4.3359    7.5731    0.5140 H         1 <0>         0.0802
     26 H3          4.3164    5.7933    0.5054 H         1 <0>         0.1264
     27 H4          3.4965    9.0352    0.0154 H         1 <0>         0.2274
     28 H5          1.0222   13.0635    0.0479 H         1 <0>         0.1795
     29 H6          3.0926   14.7143    0.0478 H         1 <0>         0.1768
     30 H7          5.9439   13.5232   -1.0142 H         1 <0>         0.0963
     31 H8          5.6443   14.3484    0.5342 H         1 <0>         0.0982
     32 H9          6.2735   12.6834    0.5202 H         1 <0>         0.1111
     33 H10         2.1243    1.2525   -0.0108 H         1 <0>         0.1535
     34 H11         0.0021   -0.0041    0.0020 H         1 <0>         0.1426
     35 H12        -2.1428    1.1868    0.0190 H         1 <0>         0.1430
     36 H13        -2.1938    3.6562    0.0406 H         1 <0>         0.1529
     37 H14         1.5429    5.1525    0.9577 H         1 <0>         0.1451
@<TRIPOS>BOND
     1    1    2 1
     2    1   24 1
     3    1   25 1
     4    1   26 1
     5    2    3 2
     6    2   13 1
     7    3    4 1
     8    4    5 am
     9    4   27 1
    10    5    6 2
    11    5    7 1
    12    7   11 2
    13    7    8 1
    14    8    9 2
    15    8   28 1
    16    9   10 1
    17    9   29 1
    18   10   11 1
    19   10   12 1
    20   12   30 1
    21   12   31 1
    22   12   32 1
    23   13   37 1
    24   13   14 1
    25   13   21 1
    26   14   15 1
    27   14   23 2
    28   15   20 ar
    29   15   16 ar
    30   16   17 ar
    31   16   33 1
    32   17   18 ar
    33   17   34 1
    34   18   19 ar
    35   18   35 1
    36   19   20 ar
    37   19   36 1
    38   20   21 1
    39   21   22 2
@<TRIPOS>MOLECULE
ZINC04459670
   42    44     0     0     0
SMALL
USER_CHARGES

@<TRIPOS>ATOM
      1 C1         -0.4103    1.7532   -1.1914 C.3       1 <0>        -0.1230
      2 N1         -1.1970    0.6687   -0.5889 N.pl3     1 <0>        -0.2350
      3 C2         -2.2058    0.1644   -1.5301 C.3       1 <0>        -0.1208
      4 C3         -0.3738   -0.3557   -0.1467 C.ar      1 <0>         0.0795
      5 C4          0.4426   -1.0329   -1.0436 C.ar      1 <0>        -0.1853
      6 C5          1.2647   -2.0484   -0.6005 C.ar      1 <0>        -0.0422
      7 C6          1.2773   -2.4118    0.7387 C.ar      1 <0>        -0.1230
      8 C7          0.4740   -1.7596    1.6450 C.ar      1 <0>         0.0055
      9 C8         -0.3645   -0.7205    1.2145 C.ar      1 <0>        -0.0900
     10 C9         -1.2213   -0.0214    2.1703 C.2       1 <0>         0.0995
     11 C10        -1.8864   -0.7319    3.1491 C.2       1 <0>        -0.2820
     12 C11        -2.6657   -0.1897    4.2786 C.2       1 <0>         0.3587
     13 O1         -2.8511    0.9853    4.5335 O.2       1 <0>        -0.3285
     14 N2         -3.1326   -1.2446    4.9729 N.am      1 <0>        -0.2818
     15 N3         -2.7194   -2.4402    4.3856 N.am      1 <0>        -0.1653
     16 C12        -1.9772   -2.1974    3.2887 C.2       1 <0>         0.3578
     17 O2         -1.4747   -3.0279    2.5552 O.2       1 <0>        -0.3376
     18 C13        -3.0381   -3.7147    4.8652 C.ar      1 <0>         0.0774
     19 C14        -2.5790   -4.8438    4.1992 C.ar      1 <0>        -0.1524
     20 C15        -2.8916   -6.1009    4.6782 C.ar      1 <0>        -0.0966
     21 C16        -3.6693   -6.2362    5.8135 C.ar      1 <0>        -0.1480
     22 C17        -4.1323   -5.1141    6.4760 C.ar      1 <0>        -0.0998
     23 C18        -3.8190   -3.8541    6.0052 C.ar      1 <0>        -0.1716
     24 N4          2.1613   -3.5079    1.1950 N.pl3     1 <0>         0.5522
     25 O3          2.1758   -3.8297    2.3696 O.2       1 <0>        -0.3482
     26 O4          2.8743   -4.0880    0.3958 O.3       1 <0>        -0.3601
     27 H1          0.1521    1.3655   -2.0408 H         1 <0>         0.0535
     28 H2         -1.0805    2.5435   -1.5297 H         1 <0>         0.0975
     29 H3          0.2810    2.1553   -0.4509 H         1 <0>         0.0950
     30 H4         -2.8196   -0.5886   -1.0358 H         1 <0>         0.0996
     31 H5         -2.8378    0.9883   -1.8612 H         1 <0>         0.0965
     32 H6         -1.7083   -0.2809   -2.3917 H         1 <0>         0.0537
     33 H7          0.4369   -0.7612   -2.0889 H         1 <0>         0.1511
     34 H8          1.9003   -2.5678   -1.3024 H         1 <0>         0.1658
     35 H9          0.4885   -2.0472    2.6859 H         1 <0>         0.1806
     36 H10        -1.3340    1.0510    2.1107 H         1 <0>         0.1758
     37 H11        -3.6802   -1.1818    5.7711 H         1 <0>         0.2765
     38 H12        -1.9750   -4.7388    3.3101 H         1 <0>         0.1822
     39 H13        -2.5315   -6.9792    4.1631 H         1 <0>         0.1403
     40 H14        -3.9160   -7.2204    6.1835 H         1 <0>         0.1334
     41 H15        -4.7393   -5.2232    7.3626 H         1 <0>         0.1343
     42 H16        -4.1806   -2.9781    6.5233 H         1 <0>         0.1249
@<TRIPOS>BOND
     1    1    2 1
     2    1   27 1
     3    1   28 1
     4    1   29 1
     5    2    3 1
     6    2    4 1
     7    3   30 1
     8    3   31 1
     9    3   32 1
    10    4    9 ar
    11    4    5 ar
    12    5    6 ar
    13    5   33 1
    14    6    7 ar
    15    6   34 1
    16    7    8 ar
    17    7   24 1
    18    8    9 ar
    19    8   35 1
    20    9   10 1
    21   10   11 2
    22   10   36 1
    23   11   16 1
    24   11   12 1
    25   12   13 2
    26   12   14 am
    27   14   15 1
    28   14   37 1
    29   15   16 am
    30   15   18 1
    31   16   17 2
    32   18   23 ar
    33   18   19 ar
    34   19   20 ar
    35   19   38 1
    36   20   21 ar
    37   20   39 1
    38   21   22 ar
    39   21   40 1
    40   22   23 ar
    41   22   41 1
    42   23   42 1
    43   24   25 2
    44   24   26 1
@<TRIPOS>MOLECULE
ZINC04459813
   43    45     0     0     0
SMALL
USER_CHARGES

@<TRIPOS>ATOM
      1 C1          2.3052   -0.3063   -0.0398 C.3       1 <0>        -0.0640
      2 O1          2.3645    1.1214   -0.0235 O.3       1 <0>        -0.2098
      3 C2          1.1818    1.7870    0.0004 C.ar      1 <0>         0.1233
      4 C3         -0.0126    1.0758    0.0080 C.ar      1 <0>        -0.2415
      5 C4         -1.2151    1.7482    0.0173 C.ar      1 <0>        -0.0277
      6 C5         -1.2286    3.1436    0.0302 C.ar      1 <0>        -0.1811
      7 C6         -0.0285    3.8564    0.0425 C.ar      1 <0>         0.0028
      8 C7          1.1701    3.1764    0.0176 C.ar      1 <0>        -0.1753
      9 C8         -0.0394    5.3601    0.1101 C.3       1 <0>        -0.1195
     10 C9         -1.2048    5.9290   -0.6930 C.3       1 <0>        -0.1009
     11 C10        -2.4955    5.2632   -0.2952 C.2       1 <0>        -0.2999
     12 C11        -3.6354    5.9856   -0.2183 C.2       1 <0>         0.0649
     13 N1         -3.6176    7.3223   -0.5012 N.pl3     1 <0>        -0.2699
     14 C12        -4.7960    8.0691   -0.4217 C.ar      1 <0>         0.1342
     15 C13        -5.9877    7.4529   -0.0606 C.ar      1 <0>        -0.2083
     16 C14        -7.1492    8.1951    0.0231 C.ar      1 <0>         0.0138
     17 C15        -7.1294    9.5479   -0.2636 C.ar      1 <0>        -0.8003
     18 C16        -5.9462   10.1632   -0.6293 C.ar      1 <0>         0.0124
     19 C17        -4.7798    9.4282   -0.7090 C.ar      1 <0>        -0.2082
     20 S1         -8.6151   10.4897   -0.1621 S.o2      1 <0>         2.7652
     21 O2         -9.4765    9.7947    0.7292 O.2       1 <0>        -0.9171
     22 O3         -8.2264   11.8397    0.0517 O.2       1 <0>        -0.9188
     23 N2         -9.3328   10.4344   -1.6535 N.pl3     1 <0>        -0.9315
     24 C18        -2.5113    3.8793   -0.0028 C.2       1 <0>         0.3367
     25 O4         -3.5623    3.3039    0.2182 O.2       1 <0>        -0.3303
     26 H1          1.7888   -0.6587    0.8531 H         1 <0>         0.0711
     27 H2          1.7649   -0.6374   -0.9266 H         1 <0>         0.0705
     28 H3          3.3169   -0.7117   -0.0582 H         1 <0>         0.1098
     29 H4          0.0021   -0.0041    0.0020 H         1 <0>         0.1389
     30 H5         -2.1440    1.1972    0.0187 H         1 <0>         0.1523
     31 H6          2.1010    3.7238    0.0118 H         1 <0>         0.1455
     32 H7         -0.1343    5.6718    1.1503 H         1 <0>         0.1026
     33 H8          0.8969    5.7442   -0.2948 H         1 <0>         0.0920
     34 H9         -1.0257    5.7608   -1.7550 H         1 <0>         0.0943
     35 H10        -1.2806    7.0004   -0.5070 H         1 <0>         0.0680
     36 H11        -4.5603    5.5062    0.0669 H         1 <0>         0.1821
     37 H12        -2.7870    7.7529   -0.7573 H         1 <0>         0.2469
     38 H13        -6.0047    6.3955    0.1588 H         1 <0>         0.1492
     39 H14        -8.0750    7.7177    0.3084 H         1 <0>         0.1584
     40 H15        -5.9342   11.2198   -0.8525 H         1 <0>         0.1566
     41 H16        -3.8559    9.9095   -0.9940 H         1 <0>         0.1392
     42 H17        -8.9142    9.9394   -2.3751 H         1 <0>         0.2296
     43 H18       -10.1718   10.8969   -1.8054 H         1 <0>         0.2438
@<TRIPOS>BOND
     1    1    2 1
     2    1   26 1
     3    1   27 1
     4    1   28 1
     5    2    3 1
     6    3    8 ar
     7    3    4 ar
     8    4    5 ar
     9    4   29 1
    10    5    6 ar
    11    5   30 1
    12    6   24 1
    13    6    7 ar
    14    7    8 ar
    15    7    9 1
    16    8   31 1
    17    9   10 1
    18    9   32 1
    19    9   33 1
    20   10   11 1
    21   10   34 1
    22   10   35 1
    23   11   12 2
    24   11   24 1
    25   12   13 1
    26   12   36 1
    27   13   14 1
    28   13   37 1
    29   14   19 ar
    30   14   15 ar
    31   15   16 ar
    32   15   38 1
    33   16   17 ar
    34   16   39 1
    35   17   18 ar
    36   17   20 1
    37   18   19 ar
    38   18   40 1
    39   19   41 1
    40   20   21 2
    41   20   22 2
    42   20   23 1
    43   23   42 1
    44   23   43 1
    45   24   25 2
@<TRIPOS>MOLECULE
ZINC04459965
   44    46     0     0     0
SMALL
USER_CHARGES

@<TRIPOS>ATOM
      1 C1          1.5549    6.7477    3.0418 C.3       1 <0>        -0.0657
      2 O1          0.5194    6.5040    2.0877 O.3       1 <0>        -0.2017
      3 C2          0.8078    5.6546    1.0686 C.ar      1 <0>         0.1034
      4 C3          2.0320    4.9875    1.0483 C.ar      1 <0>        -0.2107
      5 C4          2.3627    4.1285    0.0482 C.ar      1 <0>        -0.0619
      6 C5          1.4721    3.8805   -1.0112 C.ar      1 <0>        -0.0706
      7 C6          1.8036    2.9943   -2.0504 C.ar      1 <0>        -0.1018
      8 C7          0.9160    2.7781   -3.0601 C.ar      1 <0>        -0.1349
      9 C8         -0.3164    3.4264   -3.0831 C.ar      1 <0>        -0.1059
     10 C9         -0.6727    4.2879   -2.0884 C.ar      1 <0>        -0.1260
     11 C10         0.2160    4.5340   -1.0349 C.ar      1 <0>         0.0156
     12 C11        -0.1225    5.4544    0.0490 C.ar      1 <0>        -0.1484
     13 C12        -1.4153    6.1534    0.0643 C.2       1 <0>        -0.1009
     14 N1         -1.4517    7.4510    0.1289 N.2       1 <0>         0.0278
     15 N2         -0.2647    8.1903    0.0436 N.am      1 <0>        -0.3234
     16 C13        -0.2887    9.5263    0.2195 C.2       1 <0>         0.3152
     17 O2         -1.3480   10.1005    0.3612 O.2       1 <0>        -0.3280
     18 C14         1.0002   10.3069    0.2402 C.3       1 <0>        -0.1852
     19 C15         0.7054   11.7693    0.5796 C.3       1 <0>        -0.0752
     20 C16         1.9943   12.5499    0.6003 C.2       1 <0>        -0.1168
     21 C17         1.9898   13.9843    0.9017 C.2       1 <0>         0.3039
     22 O3          0.9444   14.5609    1.1386 O.2       1 <0>        -0.3035
     23 N3          3.1590   14.6574    0.9136 N.am      1 <0>        -0.3415
     24 H1          3.1701   15.6362    1.1180 H         1 <0>         0.2825
     25 C18         4.3107   14.0119    0.6504 C.2       1 <0>         0.3769
     26 O4          5.3589   14.6279    0.6638 O.2       1 <0>        -0.3681
     27 N4          4.3194   12.6959    0.3734 N.am      1 <0>        -0.3048
     28 H2          5.1613   12.2516    0.1872 H         1 <0>         0.2939
     29 N5          3.1300   11.9576    0.3557 N.2       1 <0>        -0.0029
     30 H3          1.1700    7.3799    3.8421 H         1 <0>         0.1169
     31 H4          1.8948    5.7999    3.4592 H         1 <0>         0.0722
     32 H5          2.3895    7.2493    2.5521 H         1 <0>         0.0646
     33 H6          2.7365    5.1580    1.8488 H         1 <0>         0.1382
     34 H7          3.3208    3.6305    0.0676 H         1 <0>         0.1360
     35 H8          2.7575    2.4878   -2.0483 H         1 <0>         0.1336
     36 H9          1.1734    2.0968   -3.8576 H         1 <0>         0.1320
     37 H10        -1.0008    3.2409   -3.8977 H         1 <0>         0.1335
     38 H11        -1.6331    4.7811   -2.1153 H         1 <0>         0.1407
     39 H12        -2.3350    5.5888    0.0218 H         1 <0>         0.1846
     40 H13         0.5745    7.7406   -0.1421 H         1 <0>         0.2165
     41 H14         1.6675    9.8866    0.9927 H         1 <0>         0.1069
     42 H15         1.4753   10.2498   -0.7392 H         1 <0>         0.1131
     43 H16         0.0381   12.1896   -0.1729 H         1 <0>         0.1371
     44 H17         0.2303   11.8263    1.5590 H         1 <0>         0.1326
@<TRIPOS>BOND
     1    1    2 1
     2    1   30 1
     3    1   31 1
     4    1   32 1
     5    2    3 1
     6    3   12 ar
     7    3    4 ar
     8    4    5 ar
     9    4   33 1
    10    5    6 ar
    11    5   34 1
    12    6   11 ar
    13    6    7 ar
    14    7    8 ar
    15    7   35 1
    16    8    9 ar
    17    8   36 1
    18    9   10 ar
    19    9   37 1
    20   10   11 ar
    21   10   38 1
    22   11   12 ar
    23   12   13 1
    24   13   14 2
    25   13   39 1
    26   14   15 1
    27   15   16 am
    28   15   40 1
    29   16   17 2
    30   16   18 1
    31   18   19 1
    32   18   41 1
    33   18   42 1
    34   19   20 1
    35   19   43 1
    36   19   44 1
    37   20   29 2
    38   20   21 1
    39   21   22 2
    40   21   23 am
    41   23   24 1
    42   23   25 am
    43   25   26 2
    44   25   27 am
    45   27   28 1
    46   27   29 1
@<TRIPOS>MOLECULE
ZINC04460325
   38    41     0     0     0
SMALL
USER_CHARGES

@<TRIPOS>ATOM
      1 C1         -2.4782    1.4427   -0.5901 C.3       1 <0>        -0.0652
      2 O1         -1.2701    2.2031   -0.5246 O.3       1 <0>        -0.1983
      3 C2         -0.1198    1.5158   -0.2948 C.ar      1 <0>         0.0875
      4 C3         -0.1542    0.1424   -0.1364 C.ar      1 <0>        -0.1750
      5 C4          1.0113   -0.5723    0.0933 C.ar      1 <0>        -0.1129
      6 C5          2.2229    0.0802    0.1662 C.ar      1 <0>        -0.0803
      7 C6          2.2727    1.4651    0.0078 C.ar      1 <0>        -0.1642
      8 C7          1.0974    2.1949   -0.2244 C.ar      1 <0>         0.0644
      9 O2          1.1399    3.5338   -0.3782 O.3       1 <0>        -0.0865
     10 C8          2.2626    4.2452   -0.3233 C.2       1 <0>         0.1216
     11 C9          3.4952    3.6605   -0.1003 C.2       1 <0>        -0.3443
     12 C10         3.5544    2.1947    0.0792 C.2       1 <0>         0.3175
     13 O3          4.6079    1.6175    0.2787 O.2       1 <0>        -0.2834
     14 C11         4.6739    4.4474   -0.0474 C.2       1 <0>         0.0777
     15 C12         4.6291    5.7224    0.4770 C.2       1 <0>        -0.2930
     16 C13         3.4138    6.2435    1.1589 C.2       1 <0>         0.1733
     17 N1          2.5780    5.4776    1.8089 N.2       1 <0>        -0.3289
     18 N2          3.2456    7.6376    1.0405 N.pl3     1 <0>        -0.1662
     19 N3          2.0513    8.3023    1.2404 N.pl3     1 <0>        -0.2856
     20 H1          1.2380    7.8102    1.4335 H         1 <0>         0.2808
     21 C14         2.0373    9.6959    1.1597 C.2       1 <0>        -0.0793
     22 C15         1.0210   10.5347    1.3421 C.2       1 <0>        -0.2780
     23 S1          3.7365   10.0616    0.7471 S.3       1 <0>         0.3553
     24 C16         4.3501    8.3979    0.7121 C.2       1 <0>         0.0668
     25 N4          5.5539    7.9687    0.4360 N.2       1 <0>        -0.2542
     26 C17         5.7907    6.6380    0.3943 C.2       1 <0>         0.3304
     27 O4          6.9254    6.2033    0.2877 O.2       1 <0>        -0.2716
     28 H2         -3.3185    2.1111   -0.7777 H         1 <0>         0.1168
     29 H3         -2.4058    0.7145   -1.3980 H         1 <0>         0.0706
     30 H4         -2.6318    0.9224    0.3553 H         1 <0>         0.0710
     31 H5         -1.0986   -0.3786   -0.1917 H         1 <0>         0.1486
     32 H6          0.9695   -1.6445    0.2158 H         1 <0>         0.1443
     33 H7          3.1299   -0.4783    0.3448 H         1 <0>         0.1638
     34 H8          2.2092    5.3155   -0.4571 H         1 <0>         0.2066
     35 H9          5.6067    4.0483   -0.4177 H         1 <0>         0.1853
     36 H10         2.7798    4.5373    1.9356 H         1 <0>         0.1948
     37 H11         1.1748   11.5990    1.2425 H         1 <0>         0.1504
     38 H12         0.0422   10.1513    1.5899 H         1 <0>         0.1392
@<TRIPOS>BOND
     1    1    2 1
     2    1   28 1
     3    1   29 1
     4    1   30 1
     5    2    3 1
     6    3    8 ar
     7    3    4 ar
     8    4    5 ar
     9    4   31 1
    10    5    6 ar
    11    5   32 1
    12    6    7 ar
    13    6   33 1
    14    7   12 1
    15    7    8 ar
    16    8    9 1
    17    9   10 1
    18   10   11 2
    19   10   34 1
    20   11   12 1
    21   11   14 1
    22   12   13 2
    23   14   15 2
    24   14   35 1
    25   15   26 1
    26   15   16 1
    27   16   17 2
    28   16   18 1
    29   17   36 1
    30   18   24 1
    31   18   19 1
    32   19   20 1
    33   19   21 1
    34   21   22 2
    35   21   23 1
    36   22   37 1
    37   22   38 1
    38   23   24 1
    39   24   25 2
    40   25   26 1
    41   26   27 2
@<TRIPOS>MOLECULE
ZINC04460363
   41    42     0     0     0
SMALL
USER_CHARGES

@<TRIPOS>ATOM
      1 C1          2.6472   10.9262    3.8310 C.3       1 <0>        -0.1851
      2 C2          1.9811    9.6383    3.4203 C.ar      1 <0>        -0.0144
      3 C3          1.5071    9.4860    2.1307 C.ar      1 <0>        -0.1503
      4 C4          0.8961    8.3046    1.7540 C.ar      1 <0>        -0.0195
      5 C5          0.7595    7.2755    2.6667 C.ar      1 <0>        -0.7737
      6 C6          1.2334    7.4278    3.9563 C.ar      1 <0>        -0.0339
      7 C7          1.8445    8.6092    4.3330 C.ar      1 <0>        -0.1457
      8 S1         -0.0198    5.7698    2.1866 S.o2      1 <0>         2.7463
      9 O1         -0.3559    5.0861    3.3861 O.2       1 <0>        -0.9053
     10 O2         -0.9903    6.1096    1.2058 O.2       1 <0>        -0.9000
     11 N1          1.1240    4.8488    1.4214 N.pl3     1 <0>        -0.8230
     12 C8          2.1787    4.3409    2.1291 C.2       1 <0>         0.1401
     13 N2          3.1415    3.7216    1.5083 N.2       1 <0>        -0.1956
     14 C9          3.0522    3.4933    0.1585 C.ar      1 <0>         0.0068
     15 C10         1.9304    2.8547   -0.3713 C.ar      1 <0>        -0.1824
     16 C11         1.8445    2.6323   -1.7303 C.ar      1 <0>        -0.1106
     17 C12         2.8723    3.0316   -2.5659 C.ar      1 <0>        -0.1407
     18 C13         3.9896    3.6606   -2.0462 C.ar      1 <0>        -0.1146
     19 C14         4.0854    3.8935   -0.6896 C.ar      1 <0>        -0.1210
     20 C15         2.2265    4.4981    3.6271 C.3       1 <0>        -0.2463
     21 S2          3.7210    3.7046    4.2696 S.3       1 <0>         0.1763
     22 C16         3.5254    4.0314    5.9900 C.2       1 <0>         0.1788
     23 O3          2.5542    4.6474    6.3854 O.2       1 <0>        -0.3762
     24 N3          4.4521    3.5986    6.8677 N.am      1 <0>        -0.4101
     25 H1          1.8974   11.6152    4.2199 H         1 <0>         0.0964
     26 H2          3.3883   10.7217    4.6037 H         1 <0>         0.0888
     27 H3          3.1378   11.3734    2.9664 H         1 <0>         0.0874
     28 H4          1.6139   10.2900    1.4176 H         1 <0>         0.1391
     29 H5          0.5215    8.1874    0.7478 H         1 <0>         0.1464
     30 H6          1.1270    6.6236    4.6692 H         1 <0>         0.1669
     31 H7          2.2154    8.7280    5.3403 H         1 <0>         0.1439
     32 H8          1.0462    4.6694    0.4713 H         1 <0>         0.2724
     33 H9          1.1292    2.5388    0.2804 H         1 <0>         0.1380
     34 H10         0.9751    2.1415   -2.1421 H         1 <0>         0.1332
     35 H11         2.8023    2.8513   -3.6284 H         1 <0>         0.1312
     36 H12         4.7887    3.9696   -2.7037 H         1 <0>         0.1330
     37 H13         4.9582    4.3843   -0.2851 H         1 <0>         0.1441
     38 H14         2.2401    5.5580    3.8809 H         1 <0>         0.1380
     39 H15         1.3474    4.0297    4.0698 H         1 <0>         0.1810
     40 H16         5.2267    3.1072    6.5524 H         1 <0>         0.2253
     41 H17         4.3444    3.7785    7.8148 H         1 <0>         0.2348
@<TRIPOS>BOND
     1    1    2 1
     2    1   25 1
     3    1   26 1
     4    1   27 1
     5    2    7 ar
     6    2    3 ar
     7    3    4 ar
     8    3   28 1
     9    4    5 ar
    10    4   29 1
    11    5    6 ar
    12    5    8 1
    13    6    7 ar
    14    6   30 1
    15    7   31 1
    16    8    9 2
    17    8   10 2
    18    8   11 1
    19   11   12 1
    20   11   32 1
    21   12   13 2
    22   12   20 1
    23   13   14 1
    24   14   19 ar
    25   14   15 ar
    26   15   16 ar
    27   15   33 1
    28   16   17 ar
    29   16   34 1
    30   17   18 ar
    31   17   35 1
    32   18   19 ar
    33   18   36 1
    34   19   37 1
    35   20   21 1
    36   20   38 1
    37   20   39 1
    38   21   22 1
    39   22   23 2
    40   22   24 am
    41   24   40 1
    42   24   41 1
@<TRIPOS>MOLECULE
ZINC04464215
   40    41     0     0     0
SMALL
USER_CHARGES

@<TRIPOS>ATOM
      1 C1         -0.0307    0.0111    3.5915 C.3       1 <0>        -0.0812
      2 N1         -0.6923    1.1368    2.9272 N.am      1 <0>        -0.2709
      3 C2         -2.0583    1.2418    2.9681 C.2       1 <0>         0.2937
      4 C3         -2.6748    2.3196    2.3313 C.2       1 <0>        -0.4517
      5 C4         -1.8589    3.2720    1.6675 C.2       1 <0>         0.3681
      6 O1         -2.3624    4.2278    1.1048 O.2       1 <0>        -0.3549
      7 N2         -0.5216    3.1054    1.6614 N.am      1 <0>        -0.3036
      8 C5          0.0459    2.0578    2.2834 C.2       1 <0>         0.4066
      9 O2          1.2558    1.9399    2.2630 O.2       1 <0>        -0.3533
     10 C6          0.3253    4.0826    0.9727 C.3       1 <0>        -0.0600
     11 C7         -4.1370    2.4680    2.3523 C.2       1 <0>        -0.0206
     12 N3         -4.8197    2.3327    1.2545 N.2       1 <0>         0.0116
     13 N4         -4.1885    1.8813    0.0881 N.am      1 <0>        -0.2974
     14 C8         -4.8656    1.8532   -1.0769 C.2       1 <0>         0.2967
     15 O3         -6.0221    2.2188   -1.1154 O.2       1 <0>        -0.3097
     16 C9         -4.1866    1.3677   -2.3315 C.3       1 <0>        -0.1068
     17 N5         -5.1272    1.4340   -3.4528 N.ar      1 <0>         0.0255
     18 C10        -5.8829    0.3867   -3.7197 C.ar      1 <0>        -0.0038
     19 C11        -6.7849    0.4142   -4.7664 C.ar      1 <0>        -0.1287
     20 C12        -6.8811    1.5571   -5.5455 C.ar      1 <0>        -0.0110
     21 C13        -6.0667    2.6362   -5.2376 C.ar      1 <0>        -0.1278
     22 C14        -5.1922    2.5374   -4.1720 C.ar      1 <0>         0.0013
     23 N6         -2.8062    0.3041    3.6239 N.pl3     1 <0>        -0.3753
     24 H1          1.0478    0.0919    3.4555 H         1 <0>         0.1516
     25 H2         -0.2650    0.0286    4.6559 H         1 <0>         0.0952
     26 H3         -0.3825   -0.9247    3.1573 H         1 <0>         0.0844
     27 H4          0.4671    3.7744   -0.0631 H         1 <0>         0.0802
     28 H5          1.2932    4.1393    1.4707 H         1 <0>         0.1190
     29 H6         -0.1544    5.0610    0.9983 H         1 <0>         0.1197
     30 H7         -4.6441    2.6893    3.2798 H         1 <0>         0.1923
     31 H8         -3.2641    1.5891    0.1189 H         1 <0>         0.2192
     32 H9         -3.3228    1.9975   -2.5442 H         1 <0>         0.1566
     33 H10        -3.8595    0.3373   -2.1922 H         1 <0>         0.1484
     34 H11        -5.7985   -0.5014   -3.1110 H         1 <0>         0.2029
     35 H12        -7.4037   -0.4453   -4.9777 H         1 <0>         0.1952
     36 H13        -7.5738    1.6056   -6.3727 H         1 <0>         0.1886
     37 H14        -6.1153    3.5425   -5.8229 H         1 <0>         0.1969
     38 H15        -4.5544    3.3734   -3.9256 H         1 <0>         0.2083
     39 H16        -2.3706   -0.4422    4.0645 H         1 <0>         0.2389
     40 H17        -3.7725    0.3850    3.6486 H         1 <0>         0.2559
@<TRIPOS>BOND
     1    1    2 1
     2    1   24 1
     3    1   25 1
     4    1   26 1
     5    2    8 am
     6    2    3 1
     7    3    4 2
     8    3   23 1
     9    4    5 1
    10    4   11 1
    11    5    6 2
    12    5    7 am
    13    7    8 am
    14    7   10 1
    15    8    9 2
    16   10   27 1
    17   10   28 1
    18   10   29 1
    19   11   12 2
    20   11   30 1
    21   12   13 1
    22   13   14 am
    23   13   31 1
    24   14   15 2
    25   14   16 1
    26   16   17 1
    27   16   32 1
    28   16   33 1
    29   17   22 ar
    30   17   18 ar
    31   18   19 ar
    32   18   34 1
    33   19   20 ar
    34   19   35 1
    35   20   21 ar
    36   20   36 1
    37   21   22 ar
    38   21   37 1
    39   22   38 1
    40   23   39 1
    41   23   40 1
@<TRIPOS>MOLECULE
ZINC04464245
   39    41     0     0     0
SMALL
USER_CHARGES

@<TRIPOS>ATOM
      1 C1         -7.1412    1.2650    1.3954 C.3       1 <0>        -0.1545
      2 C2         -5.9390    1.8774    0.7239 C.2       1 <0>        -0.0594
      3 C3         -4.8110    1.0298    0.3288 C.ar      1 <0>        -0.0605
      4 C4         -4.8944   -0.3622    0.3279 C.ar      1 <0>        -0.1129
      5 C5         -3.7978   -1.1080   -0.0479 C.ar      1 <0>        -0.1111
      6 C6         -2.6125   -0.4918   -0.4250 C.ar      1 <0>        -0.1175
      7 C7         -2.5073    0.8841   -0.4333 C.ar      1 <0>        -0.0978
      8 C8         -3.6021    1.6533   -0.0593 C.ar      1 <0>        -0.0970
      9 C9         -3.5702    3.1283   -0.0460 C.2       1 <0>         0.1553
     10 N1         -2.4427    3.8054    0.0463 N.2       1 <0>        -0.2284
     11 C10        -1.2667    3.1472    0.2833 C.ar      1 <0>        -0.0153
     12 C11        -0.2728    3.1132   -0.7011 C.ar      1 <0>        -0.0869
     13 C12         0.9106    2.4463   -0.4694 C.ar      1 <0>        -0.2253
     14 C13         1.1303    1.8131    0.7458 C.ar      1 <0>         0.1346
     15 C14         0.1447    1.8450    1.7417 C.ar      1 <0>        -0.1490
     16 C15        -1.0564    2.5150    1.5064 C.ar      1 <0>        -0.0995
     17 C16         0.3761    1.1720    3.0343 C.2       1 <0>         0.3512
     18 O1          1.4234    0.5884    3.2369 O.2       1 <0>        -0.3484
     19 N2         -0.5733    1.2042    3.9904 N.am      1 <0>        -0.4337
     20 O2          2.3006    1.1630    0.9702 O.3       1 <0>        -0.1653
     21 C17         3.2605    1.1710   -0.0884 C.3       1 <0>        -0.0697
     22 N3         -4.8025    3.7553   -0.1311 N.pl3     1 <0>        -0.2713
     23 H1         -4.9024    4.5892   -0.6164 H         1 <0>         0.2827
     24 N4         -5.9042    3.1593    0.4958 N.2       1 <0>        -0.0056
     25 H2         -6.9954    1.2692    2.4756 H         1 <0>         0.0978
     26 H3         -8.0305    1.8440    1.1466 H         1 <0>         0.1024
     27 H4         -7.2671    0.2390    1.0498 H         1 <0>         0.0914
     28 H5         -5.8114   -0.8524    0.6198 H         1 <0>         0.1388
     29 H6         -3.8616   -2.1861   -0.0486 H         1 <0>         0.1358
     30 H7         -1.7647   -1.0949   -0.7146 H         1 <0>         0.1407
     31 H8         -1.5829    1.3585   -0.7281 H         1 <0>         0.1623
     32 H9         -0.4356    3.6076   -1.6474 H         1 <0>         0.1450
     33 H10         1.6719    2.4200   -1.2350 H         1 <0>         0.1427
     34 H11        -1.8200    2.5430    2.2696 H         1 <0>         0.1394
     35 H12        -1.4088    1.6697    3.8287 H         1 <0>         0.2140
     36 H13        -0.4211    0.7618    4.8401 H         1 <0>         0.2296
     37 H14         4.1472    0.6177    0.2210 H         1 <0>         0.1153
     38 H15         2.8298    0.7020   -0.9730 H         1 <0>         0.0629
     39 H16         3.5367    2.1996   -0.3205 H         1 <0>         0.0673
@<TRIPOS>BOND
     1    1    2 1
     2    1   25 1
     3    1   26 1
     4    1   27 1
     5    2   24 2
     6    2    3 1
     7    3    8 ar
     8    3    4 ar
     9    4    5 ar
    10    4   28 1
    11    5    6 ar
    12    5   29 1
    13    6    7 ar
    14    6   30 1
    15    7    8 ar
    16    7   31 1
    17    8    9 1
    18    9   10 2
    19    9   22 1
    20   10   11 1
    21   11   16 ar
    22   11   12 ar
    23   12   13 ar
    24   12   32 1
    25   13   14 ar
    26   13   33 1
    27   14   15 ar
    28   14   20 1
    29   15   16 ar
    30   15   17 1
    31   16   34 1
    32   17   18 2
    33   17   19 am
    34   19   35 1
    35   19   36 1
    36   20   21 1
    37   21   37 1
    38   21   38 1
    39   21   39 1
    40   22   23 1
    41   22   24 1
@<TRIPOS>MOLECULE
ZINC04464443
   45    47     0     0     0
SMALL
USER_CHARGES

@<TRIPOS>ATOM
      1 C1          0.1303    1.1189   -0.1662 C.3       1 <0>        -0.2030
      2 C2         -0.8472    1.2465    0.9737 C.2       1 <0>         0.2261
      3 C3         -0.4022    1.1085    2.3000 C.2       1 <0>        -0.3837
      4 C4          0.9771    0.9716    2.5618 C.2       1 <0>         0.2906
      5 O1          1.7690    0.9713    1.6409 O.2       1 <0>        -0.3539
      6 C5          1.4747    0.8308    3.9769 C.3       1 <0>        -0.1870
      7 C6          0.4053    0.1337    4.8216 C.3       1 <0>        -0.0608
      8 C7         -0.8838    0.9582    4.7814 C.3       1 <0>        -0.1908
      9 C8         -1.3407    1.1027    3.3531 C.2       1 <0>         0.2819
     10 O2         -2.5248    1.2145    3.1068 O.2       1 <0>        -0.3080
     11 C9          0.8921    0.0162    6.2673 C.3       1 <0>        -0.2021
     12 C10         0.1366   -1.2629    4.2575 C.3       1 <0>        -0.2066
     13 N1         -2.1218    1.4880    0.7266 N.2       1 <0>        -0.2544
     14 C11        -2.4664    2.4804   -0.1033 C.2       1 <0>         0.2855
     15 N2         -3.7814    2.6677   -0.4381 N.pl3     1 <0>        -0.4221
     16 N3         -1.5287    3.2872   -0.6044 N.2       1 <0>        -0.3171
     17 C12        -1.8795    4.3479   -1.3195 C.2       1 <0>         0.2865
     18 N4         -1.0220    5.1724   -1.9764 N.pl3     1 <0>        -0.2441
     19 H1         -0.0559    5.0914   -2.0057 H         1 <0>         0.2899
     20 C13        -1.7870    6.1550   -2.6002 C.ar      1 <0>        -0.0199
     21 C14        -1.4687    7.2450   -3.3965 C.ar      1 <0>        -0.1140
     22 C15        -2.4737    8.0588   -3.8806 C.ar      1 <0>        -0.1058
     23 C16        -3.7965    7.7893   -3.5732 C.ar      1 <0>        -0.1168
     24 C17        -4.1216    6.7062   -2.7811 C.ar      1 <0>        -0.0885
     25 C18        -3.1196    5.8825   -2.2898 C.ar      1 <0>        -0.0024
     26 O3         -3.1373    4.7725   -1.5131 O.3       1 <0>        -0.1214
     27 H2          0.6392    0.1570   -0.1024 H         1 <0>         0.1103
     28 H3          0.8641    1.9227   -0.1073 H         1 <0>         0.1221
     29 H4         -0.4053    1.1845   -1.1132 H         1 <0>         0.0700
     30 H5          1.6639    1.7369    4.3554 H         1 <0>         0.0975
     31 H6          2.3874    0.2350    3.9818 H         1 <0>         0.1058
     32 H7         -0.7128    1.8633    5.1707 H         1 <0>         0.0957
     33 H8         -1.6567    0.4535    5.3611 H         1 <0>         0.1054
     34 H9          0.1279   -0.4755    6.8692 H         1 <0>         0.0758
     35 H10         1.8100   -0.5710    6.2950 H         1 <0>         0.0746
     36 H11         1.0852    1.0114    6.6677 H         1 <0>         0.0714
     37 H12        -0.2081   -1.1784    3.2269 H         1 <0>         0.0913
     38 H13         1.0550   -1.8493    4.2865 H         1 <0>         0.0723
     39 H14        -0.6284   -1.7560    4.8572 H         1 <0>         0.0749
     40 H15        -4.4816    2.3951    0.1753 H         1 <0>         0.2452
     41 H16        -4.0123    3.0729   -1.2886 H         1 <0>         0.2338
     42 H17        -0.4374    7.4569   -3.6371 H         1 <0>         0.1455
     43 H18        -2.2272    8.9081   -4.5006 H         1 <0>         0.1481
     44 H19        -4.5780    8.4294   -3.9552 H         1 <0>         0.1498
     45 H20        -5.1551    6.5005   -2.5443 H         1 <0>         0.1523
@<TRIPOS>BOND
     1    1    2 1
     2    1   27 1
     3    1   28 1
     4    1   29 1
     5    2    3 2
     6    2   13 1
     7    3    9 1
     8    3    4 1
     9    4    5 2
    10    4    6 1
    11    6    7 1
    12    6   30 1
    13    6   31 1
    14    7    8 1
    15    7   11 1
    16    7   12 1
    17    8    9 1
    18    8   32 1
    19    8   33 1
    20    9   10 2
    21   11   34 1
    22   11   35 1
    23   11   36 1
    24   12   37 1
    25   12   38 1
    26   12   39 1
    27   13   14 2
    28   14   15 1
    29   14   16 1
    30   15   40 1
    31   15   41 1
    32   16   17 2
    33   17   26 1
    34   17   18 1
    35   18   19 1
    36   18   20 1
    37   20   25 ar
    38   20   21 ar
    39   21   22 ar
    40   21   42 1
    41   22   23 ar
    42   22   43 1
    43   23   24 ar
    44   23   44 1
    45   24   25 ar
    46   24   45 1
    47   25   26 1
@<TRIPOS>MOLECULE
ZINC04464814
   41    44     0     0     0
SMALL
USER_CHARGES

@<TRIPOS>ATOM
      1 C1         -1.4948    8.1534   -1.9809 C.2       1 <0>        -0.2255
      2 C2         -0.2401    7.7881   -1.4927 C.2       1 <0>        -0.1259
      3 C3         -0.2486    6.4084   -1.3413 C.2       1 <0>        -0.1222
      4 N1         -1.4896    5.9578   -1.7397 N.pl3     1 <0>        -0.1053
      5 H1         -1.7807    5.0325   -1.7458 H         1 <0>         0.2617
      6 C4         -2.2357    7.0246   -2.1187 C.2       1 <0>        -0.0771
      7 C5          0.8158    5.6145   -0.8729 C.2       1 <0>         0.0762
      8 C6          0.5596    4.3771   -0.3066 C.2       1 <0>        -0.3140
      9 C7          1.6522    3.4172    0.0093 C.2       1 <0>         0.1845
     10 N2          2.8490    3.7903    0.3813 N.2       1 <0>        -0.3122
     11 N3          1.2720    2.0668   -0.1309 N.pl3     1 <0>        -0.1688
     12 N4          2.1456    1.0135   -0.3085 N.pl3     1 <0>        -0.2473
     13 H2          3.0925    1.1777   -0.4397 H         1 <0>         0.2824
     14 C8          1.6559   -0.2740   -0.2974 C.2       1 <0>        -0.0139
     15 C9          2.3366   -1.4515   -0.4028 C.2       1 <0>        -0.3213
     16 C10         1.6404   -2.6703   -0.3685 C.2       1 <0>         0.3877
     17 O1          0.4277   -2.6763   -0.2446 O.2       1 <0>        -0.3991
     18 N5          2.3129   -3.8337   -0.4726 N.am      1 <0>        -0.3475
     19 C11         3.7680   -3.9709   -0.6321 C.3       1 <0>        -0.0208
     20 C12         4.0778   -5.4794   -0.7319 C.3       1 <0>        -0.1741
     21 C13         2.7255   -6.0795   -1.1994 C.3       1 <0>        -0.1789
     22 C14         1.7106   -5.1791   -0.4517 C.3       1 <0>        -0.0100
     23 S1         -0.1003   -0.0045   -0.1089 S.3       1 <0>         0.4865
     24 C15        -0.0742    1.7674   -0.0477 C.2       1 <0>         0.0297
     25 N6         -1.0661    2.6090    0.0561 N.2       1 <0>        -0.2636
     26 C16        -0.8162    3.9369    0.0182 C.2       1 <0>         0.3219
     27 O2         -1.6981    4.7486    0.2457 O.2       1 <0>        -0.2936
     28 H3         -1.8193    9.1578   -2.2096 H         1 <0>         0.1532
     29 H4          0.5823    8.4531   -1.2740 H         1 <0>         0.1509
     30 H5         -3.2537    6.9824   -2.4769 H         1 <0>         0.1724
     31 H6          1.8320    5.9707   -0.9554 H         1 <0>         0.1437
     32 H7          3.0596    4.7336    0.4624 H         1 <0>         0.1836
     33 H8          3.4110   -1.4462   -0.5126 H         1 <0>         0.1480
     34 H9          4.0908   -3.4633   -1.5411 H         1 <0>         0.0807
     35 H10         4.2775   -3.5463    0.2329 H         1 <0>         0.0816
     36 H11         4.3638   -5.8832    0.2393 H         1 <0>         0.0947
     37 H12         4.8572   -5.6625   -1.4716 H         1 <0>         0.0940
     38 H13         2.6303   -7.1192   -0.8860 H         1 <0>         0.0966
     39 H14         2.6091   -5.9863   -2.2791 H         1 <0>         0.0964
     40 H15         1.5838   -5.5221    0.5751 H         1 <0>         0.0872
     41 H16         0.7519   -5.1736   -0.9703 H         1 <0>         0.1076
@<TRIPOS>BOND
     1    1    6 2
     2    1    2 1
     3    1   28 1
     4    2    3 2
     5    2   29 1
     6    3    4 1
     7    3    7 1
     8    4    5 1
     9    4    6 1
    10    6   30 1
    11    7    8 2
    12    7   31 1
    13    8   26 1
    14    8    9 1
    15    9   10 2
    16    9   11 1
    17   10   32 1
    18   11   24 1
    19   11   12 1
    20   12   13 1
    21   12   14 1
    22   14   15 2
    23   14   23 1
    24   15   16 1
    25   15   33 1
    26   16   17 2
    27   16   18 am
    28   18   22 1
    29   18   19 1
    30   19   20 1
    31   19   34 1
    32   19   35 1
    33   20   21 1
    34   20   36 1
    35   20   37 1
    36   21   22 1
    37   21   38 1
    38   21   39 1
    39   22   40 1
    40   22   41 1
    41   23   24 1
    42   24   25 2
    43   25   26 1
    44   26   27 2
@<TRIPOS>MOLECULE
ZINC04464841
   38    40     0     0     0
SMALL
USER_CHARGES

@<TRIPOS>ATOM
      1 C1          4.3531    8.2181    1.3936 C.3       1 <0>        -0.0670
      2 O1          3.1466    8.6961    0.7954 O.3       1 <0>        -0.1970
      3 C2          2.2863    7.7619    0.3091 C.ar      1 <0>         0.0706
      4 C3          2.5975    6.4199    0.4064 C.ar      1 <0>        -0.1834
      5 C4          1.7092    5.4610   -0.0955 C.ar      1 <0>        -0.0536
      6 C5          0.5130    5.8688   -0.6983 C.ar      1 <0>        -0.1326
      7 C6          0.2089    7.2096   -0.7859 C.ar      1 <0>        -0.1182
      8 C7          1.0907    8.1594   -0.2879 C.ar      1 <0>         0.0638
      9 O2          0.7877    9.4804   -0.3829 O.3       1 <0>        -0.2744
     10 C8          2.0338    4.0323    0.0047 C.2       1 <0>         0.0191
     11 C9          1.0585    3.1019   -0.1551 C.2       1 <0>        -0.3254
     12 C10         1.1716    1.6337   -0.2478 C.2       1 <0>         0.3355
     13 O3          2.2502    1.0734   -0.1832 O.2       1 <0>        -0.3243
     14 N1          0.0480    0.9542   -0.4038 N.am      1 <0>        -0.3477
     15 C11        -1.1633    1.6080   -0.4799 C.2       1 <0>        -0.0218
     16 N2         -2.3611    1.0925   -0.6376 N.2       1 <0>        -0.1565
     17 C12        -2.5135   -0.2642   -0.7494 C.ar      1 <0>        -0.0092
     18 C13        -1.6647   -0.9981   -1.5805 C.ar      1 <0>        -0.1709
     19 C14        -1.8180   -2.3648   -1.6851 C.ar      1 <0>        -0.1370
     20 C15        -2.8219   -3.0090   -0.9754 C.ar      1 <0>         0.0637
     21 C16        -3.6716   -2.2828   -0.1525 C.ar      1 <0>        -0.1411
     22 C17        -3.5218   -0.9166   -0.0369 C.ar      1 <0>        -0.0964
     23 O4         -2.9732   -4.3558   -1.0863 O.3       1 <0>        -0.2909
     24 S1         -0.7077    3.3258   -0.3091 S.3       1 <0>         0.3323
     25 H1          4.9475    9.0640    1.7389 H         1 <0>         0.1142
     26 H2          4.1093    7.5757    2.2398 H         1 <0>         0.0712
     27 H3          4.9228    7.6498    0.6584 H         1 <0>         0.0669
     28 H4          3.5234    6.1109    0.8686 H         1 <0>         0.1450
     29 H5         -0.1726    5.1325   -1.0909 H         1 <0>         0.1528
     30 H6         -0.7161    7.5230   -1.2470 H         1 <0>         0.1524
     31 H7          1.1038    9.8990   -1.1953 H         1 <0>         0.2301
     32 H8          3.0486    3.7219    0.2055 H         1 <0>         0.1661
     33 H9          0.0767   -0.0131   -0.4692 H         1 <0>         0.2579
     34 H10        -0.8866   -0.4970   -2.1371 H         1 <0>         0.1386
     35 H11        -1.1592   -2.9339   -2.3242 H         1 <0>         0.1433
     36 H12        -4.4513   -2.7882    0.3978 H         1 <0>         0.1453
     37 H13        -4.1832   -0.3524    0.6039 H         1 <0>         0.1500
     38 H14        -3.5719   -4.6273   -1.7956 H         1 <0>         0.2286
@<TRIPOS>BOND
     1    1    2 1
     2    1   25 1
     3    1   26 1
     4    1   27 1
     5    2    3 1
     6    3    8 ar
     7    3    4 ar
     8    4    5 ar
     9    4   28 1
    10    5    6 ar
    11    5   10 1
    12    6    7 ar
    13    6   29 1
    14    7    8 ar
    15    7   30 1
    16    8    9 1
    17    9   31 1
    18   10   11 2
    19   10   32 1
    20   11   24 1
    21   11   12 1
    22   12   13 2
    23   12   14 am
    24   14   15 1
    25   14   33 1
    26   15   16 2
    27   15   24 1
    28   16   17 1
    29   17   22 ar
    30   17   18 ar
    31   18   19 ar
    32   18   34 1
    33   19   20 ar
    34   19   35 1
    35   20   21 ar
    36   20   23 1
    37   21   22 ar
    38   21   36 1
    39   22   37 1
    40   23   38 1
@<TRIPOS>MOLECULE
ZINC04464867
   41    43     0     0     0
SMALL
USER_CHARGES

@<TRIPOS>ATOM
      1 C1         -2.3106   -6.9890    0.6385 C.3       1 <0>        -0.0682
      2 N1         -2.8287   -5.6332    0.4394 N.pl3     1 <0>        -0.1741
      3 C2         -4.2101   -5.4121    0.3893 C.ar      1 <0>         0.0382
      4 C3         -5.0870   -6.4891    0.4005 C.ar      1 <0>        -0.1540
      5 C4         -6.4496   -6.2699    0.3564 C.ar      1 <0>        -0.1364
      6 C5         -6.9424   -4.9749    0.2899 C.ar      1 <0>         0.0560
      7 C6         -6.0671   -3.8988    0.2733 C.ar      1 <0>        -0.1288
      8 C7         -4.7044   -4.1160    0.3226 C.ar      1 <0>        -0.1399
      9 O1         -8.2842   -4.7602    0.2404 O.3       1 <0>        -0.2906
     10 C8         -1.9610   -4.5814    0.3022 C.2       1 <0>         0.1124
     11 N2         -2.2420   -3.2910    0.2101 N.2       1 <0>        -0.3738
     12 C9         -1.3095   -2.3737    0.0798 C.2       1 <0>         0.3203
     13 O2         -1.5812   -1.1865   -0.0038 O.2       1 <0>        -0.2786
     14 C10         0.0896   -2.8598    0.0406 C.2       1 <0>        -0.3387
     15 C11         1.2485   -2.1645   -0.0840 C.2       1 <0>         0.0265
     16 C12         1.2341   -0.6975   -0.0275 C.ar      1 <0>        -0.0607
     17 C13         0.3529   -0.0365    0.8372 C.ar      1 <0>        -0.0730
     18 C14         0.3421    1.3399    0.8883 C.ar      1 <0>        -0.1293
     19 C15         1.2031    2.0752    0.0843 C.ar      1 <0>         0.0664
     20 C16         2.0836    1.4247   -0.7795 C.ar      1 <0>         0.0564
     21 C17         2.1018    0.0453   -0.8378 C.ar      1 <0>        -0.1828
     22 O3          2.9248    2.1493   -1.5649 O.3       1 <0>        -0.2005
     23 C18         3.7999    1.4179   -2.4258 C.3       1 <0>        -0.0649
     24 O4          1.1875    3.4323    0.1394 O.3       1 <0>        -0.2760
     25 S1         -0.1786   -4.6213    0.1956 S.3       1 <0>         0.1719
     26 H1         -2.1959   -7.1811    1.7052 H         1 <0>         0.0946
     27 H2         -3.0075   -7.7105    0.2122 H         1 <0>         0.1069
     28 H3         -1.3428   -7.0841    0.1461 H         1 <0>         0.1006
     29 H4         -4.7033   -7.4975    0.4475 H         1 <0>         0.1312
     30 H5         -7.1317   -7.1072    0.3693 H         1 <0>         0.1427
     31 H6         -6.4516   -2.8909    0.2215 H         1 <0>         0.1506
     32 H7         -4.0230   -3.2781    0.3090 H         1 <0>         0.2178
     33 H8         -8.6454   -4.7335   -0.6562 H         1 <0>         0.2269
     34 H9          2.1813   -2.6903   -0.2248 H         1 <0>         0.1420
     35 H10        -0.3181   -0.6057    1.4635 H         1 <0>         0.1543
     36 H11        -0.3410    1.8487    1.5523 H         1 <0>         0.1501
     37 H12         2.7832   -0.4595   -1.5067 H         1 <0>         0.1374
     38 H13         4.4419    0.7716   -1.8273 H         1 <0>         0.0626
     39 H14         3.2101    0.8096   -3.1116 H         1 <0>         0.0696
     40 H15         4.4152    2.1144   -2.9953 H         1 <0>         0.1096
     41 H16         1.7944    3.8064    0.7928 H         1 <0>         0.2253
@<TRIPOS>BOND
     1    1    2 1
     2    1   26 1
     3    1   27 1
     4    1   28 1
     5    2    3 1
     6    2   10 1
     7    3    8 ar
     8    3    4 ar
     9    4    5 ar
    10    4   29 1
    11    5    6 ar
    12    5   30 1
    13    6    7 ar
    14    6    9 1
    15    7    8 ar
    16    7   31 1
    17    8   32 1
    18    9   33 1
    19   10   25 1
    20   10   11 2
    21   11   12 1
    22   12   13 2
    23   12   14 1
    24   14   15 2
    25   14   25 1
    26   15   16 1
    27   15   34 1
    28   16   21 ar
    29   16   17 ar
    30   17   18 ar
    31   17   35 1
    32   18   19 ar
    33   18   36 1
    34   19   20 ar
    35   19   24 1
    36   20   21 ar
    37   20   22 1
    38   21   37 1
    39   22   23 1
    40   23   38 1
    41   23   39 1
    42   23   40 1
    43   24   41 1
@<TRIPOS>MOLECULE
ZINC04465318
   43    46     0     0     0
SMALL
USER_CHARGES

@<TRIPOS>ATOM
      1 C1          7.5834   -7.1394   -4.4518 C.3       1 <0>        -0.2065
      2 C2          6.6209   -6.1284   -3.8255 C.3       1 <0>        -0.1400
      3 C3          5.3923   -6.8619   -3.2836 C.3       1 <0>        -0.2065
      4 C4          7.3240   -5.3965   -2.6805 C.3       1 <0>        -0.0017
      5 N1          6.4448   -4.3471   -2.1590 N.am      1 <0>        -0.2708
      6 C5          6.4202   -3.0389   -2.6315 C.ar      1 <0>         0.0912
      7 C6          7.1478   -2.4063   -3.6330 C.ar      1 <0>        -0.1650
      8 C7          6.9176   -1.0759   -3.9225 C.ar      1 <0>        -0.0740
      9 C8          5.9730   -0.3525   -3.2138 C.ar      1 <0>        -0.1650
     10 C9          5.2443   -0.9614   -2.2120 C.ar      1 <0>        -0.0540
     11 C10         5.4628   -2.3042   -1.9183 C.ar      1 <0>        -0.1811
     12 C11         4.8690   -3.2344   -0.9334 C.2       1 <0>         0.0018
     13 N2          3.9319   -2.9746   -0.0522 N.2       1 <0>        -0.0611
     14 C12         3.3043   -1.7712   -0.0638 C.ar      1 <0>        -0.0106
     15 C13         3.4025   -0.9161    1.0448 C.ar      1 <0>        -0.1104
     16 C14         2.7718    0.2946    1.0371 C.ar      1 <0>        -0.1164
     17 C15         2.0282    0.6897   -0.0699 C.ar      1 <0>        -0.0074
     18 C16         1.9217   -0.1534   -1.1827 C.ar      1 <0>         0.0051
     19 C17         2.5565   -1.3802   -1.1825 C.ar      1 <0>        -0.1467
     20 N3          1.1250    0.5098   -2.1140 N.am      1 <0>        -0.2953
     21 H1          0.8728    0.1735   -2.9882 H         1 <0>         0.2704
     22 C18         0.7655    1.6976   -1.5918 C.2       1 <0>         0.3890
     23 O1          0.0708    2.5262   -2.1497 O.2       1 <0>        -0.3795
     24 N4          1.2951    1.8325   -0.3618 N.am      1 <0>        -0.2926
     25 H2          1.1839    2.5990    0.2222 H         1 <0>         0.2694
     26 C19         5.5594   -4.5266   -1.1639 C.2       1 <0>         0.3553
     27 O2          5.3601   -5.5631   -0.5604 O.2       1 <0>        -0.2884
     28 H3          7.8948   -7.8608   -3.6963 H         1 <0>         0.0790
     29 H4          7.0825   -7.6609   -5.2674 H         1 <0>         0.0831
     30 H5          8.4587   -6.6169   -4.8378 H         1 <0>         0.0703
     31 H6          6.3095   -5.4071   -4.5809 H         1 <0>         0.0949
     32 H7          4.7066   -6.1416   -2.8375 H         1 <0>         0.0817
     33 H8          4.8914   -7.3834   -4.0993 H         1 <0>         0.0747
     34 H9          5.7037   -7.5833   -2.5282 H         1 <0>         0.0873
     35 H10         8.2467   -4.9478   -3.0485 H         1 <0>         0.0948
     36 H11         7.5563   -6.1045   -1.8850 H         1 <0>         0.1171
     37 H12         7.8858   -2.9599   -4.1945 H         1 <0>         0.1367
     38 H13         7.4844   -0.5930   -4.7048 H         1 <0>         0.1373
     39 H14         5.8066    0.6892   -3.4450 H         1 <0>         0.1395
     40 H15         4.5078   -0.3981   -1.6582 H         1 <0>         0.1498
     41 H16         3.9788   -1.2172    1.9072 H         1 <0>         0.1542
     42 H17         2.8509    0.9481    1.8934 H         1 <0>         0.1412
     43 H18         2.4766   -2.0337   -2.0386 H         1 <0>         0.1496
@<TRIPOS>BOND
     1    1    2 1
     2    1   28 1
     3    1   29 1
     4    1   30 1
     5    2    3 1
     6    2    4 1
     7    2   31 1
     8    3   32 1
     9    3   33 1
    10    3   34 1
    11    4    5 1
    12    4   35 1
    13    4   36 1
    14    5   26 am
    15    5    6 1
    16    6   11 ar
    17    6    7 ar
    18    7    8 ar
    19    7   37 1
    20    8    9 ar
    21    8   38 1
    22    9   10 ar
    23    9   39 1
    24   10   11 ar
    25   10   40 1
    26   11   12 1
    27   12   13 2
    28   12   26 1
    29   13   14 1
    30   14   19 ar
    31   14   15 ar
    32   15   16 ar
    33   15   41 1
    34   16   17 ar
    35   16   42 1
    36   17   24 1
    37   17   18 ar
    38   18   19 ar
    39   18   20 1
    40   19   43 1
    41   20   21 1
    42   20   22 am
    43   22   23 2
    44   22   24 am
    45   24   25 1
    46   26   27 2
@<TRIPOS>MOLECULE
ZINC04465444
   37    39     0     0     0
SMALL
USER_CHARGES

@<TRIPOS>ATOM
      1 C1         -7.0120   -3.4984    0.2801 C.3       1 <0>        -0.1700
      2 C2         -5.8109   -2.5919    0.3597 C.ar      1 <0>        -0.1069
      3 C3         -5.9815   -1.2400    0.5973 C.ar      1 <0>        -0.0959
      4 C4         -4.8834   -0.4062    0.6709 C.ar      1 <0>        -0.1795
      5 C5         -3.6051   -0.9271    0.5059 C.ar      1 <0>         0.0913
      6 C6         -3.4380   -2.2855    0.2621 C.ar      1 <0>        -0.1544
      7 C7         -4.5406   -3.1138    0.1955 C.ar      1 <0>        -0.0915
      8 N1         -2.4936   -0.0881    0.5791 N.pl3     1 <0>        -0.2761
      9 N2         -1.2133   -0.5980    0.3271 N.2       1 <0>         0.0955
     10 C8         -0.1615    0.1587    0.5046 C.2       1 <0>        -0.2724
     11 C9          1.2674   -0.1619    0.3142 C.2       1 <0>         0.1604
     12 N3          1.6673   -1.3482   -0.0899 N.2       1 <0>        -0.1735
     13 C10         0.7485   -2.2890   -0.4618 C.ar      1 <0>         0.0007
     14 C11         0.6759   -3.5065    0.2208 C.ar      1 <0>        -0.1007
     15 C12        -0.2562   -4.4501   -0.1547 C.ar      1 <0>        -0.1483
     16 C13        -1.1147   -4.1971   -1.2163 C.ar      1 <0>         0.0589
     17 C14        -1.0430   -2.9913   -1.9011 C.ar      1 <0>        -0.1400
     18 C15        -0.1179   -2.0391   -1.5298 C.ar      1 <0>        -0.1134
     19 O1         -2.0281   -5.1333   -1.5868 O.3       1 <0>        -0.2943
     20 N4          2.1451    0.8412    0.5816 N.am      1 <0>        -0.3103
     21 C16         1.7083    2.0469    0.9946 C.2       1 <0>         0.2479
     22 O2          2.3677    3.0315    1.2695 O.2       1 <0>        -0.2531
     23 S1         -0.0652    1.8591    1.0433 S.3       1 <0>         0.1179
     24 H1         -7.3629   -3.5470   -0.7507 H         1 <0>         0.0843
     25 H2         -6.7362   -4.4975    0.6175 H         1 <0>         0.0819
     26 H3         -7.8058   -3.1065    0.9161 H         1 <0>         0.0786
     27 H4         -6.9749   -0.8361    0.7250 H         1 <0>         0.1329
     28 H5         -5.0175    0.6493    0.8561 H         1 <0>         0.1290
     29 H6         -2.4467   -2.6930    0.1293 H         1 <0>         0.1601
     30 H7         -4.4113   -4.1700    0.0105 H         1 <0>         0.1442
     31 H8         -2.6070    0.8485    0.8044 H         1 <0>         0.2354
     32 H9          1.3465   -3.7061    1.0436 H         1 <0>         0.1448
     33 H10        -0.3158   -5.3895    0.3747 H         1 <0>         0.1432
     34 H11        -1.7129   -2.7993   -2.7261 H         1 <0>         0.1442
     35 H12        -0.0624   -1.1018   -2.0634 H         1 <0>         0.1377
     36 H13        -1.7051   -5.7561   -2.2523 H         1 <0>         0.2279
     37 H14         3.0967    0.6870    0.4741 H         1 <0>         0.2636
@<TRIPOS>BOND
     1    1    2 1
     2    1   24 1
     3    1   25 1
     4    1   26 1
     5    2    7 ar
     6    2    3 ar
     7    3    4 ar
     8    3   27 1
     9    4    5 ar
    10    4   28 1
    11    5    6 ar
    12    5    8 1
    13    6    7 ar
    14    6   29 1
    15    7   30 1
    16    8    9 1
    17    8   31 1
    18    9   10 2
    19   10   23 1
    20   10   11 1
    21   11   12 2
    22   11   20 1
    23   12   13 1
    24   13   18 ar
    25   13   14 ar
    26   14   15 ar
    27   14   32 1
    28   15   16 ar
    29   15   33 1
    30   16   17 ar
    31   16   19 1
    32   17   18 ar
    33   17   34 1
    34   18   35 1
    35   19   36 1
    36   20   21 am
    37   20   37 1
    38   21   22 2
    39   21   23 1
@<TRIPOS>MOLECULE
ZINC04465475
   42    44     0     0     0
SMALL
USER_CHARGES

@<TRIPOS>ATOM
      1 C1         -2.4016    6.2713    6.0260 C.3       1 <0>        -0.1757
      2 C2         -1.8604    6.0602    4.6355 C.ar      1 <0>        -0.0733
      3 C3         -0.5932    6.5399    4.3103 C.ar      1 <0>        -0.1102
      4 C4         -0.0754    6.3659    3.0640 C.ar      1 <0>        -0.1050
      5 C5         -0.8267    5.6917    2.0838 C.ar      1 <0>         0.0230
      6 C6         -2.1145    5.2053    2.4192 C.ar      1 <0>        -0.0505
      7 C7         -2.6163    5.4022    3.7122 C.ar      1 <0>        -0.1159
      8 C8         -2.8700    4.5260    1.4296 C.ar      1 <0>        -0.0764
      9 C9         -2.3029    4.3792    0.1696 C.ar      1 <0>        -0.1634
     10 C10        -1.0283    4.8840   -0.0732 C.ar      1 <0>         0.0049
     11 N1         -0.3431    5.5084    0.8525 N.ar      1 <0>        -0.1398
     12 C11        -0.4220    4.7128   -1.4422 C.3       1 <0>        -0.1678
     13 C12        -4.2187    3.9990    1.7263 C.2       1 <0>         0.3640
     14 O1         -4.6526    4.0433    2.8615 O.2       1 <0>        -0.3217
     15 N2         -4.9676    3.4695    0.7388 N.am      1 <0>        -0.3418
     16 N3         -6.2842    3.0665    0.9973 N.2       1 <0>         0.0184
     17 C13        -6.9675    2.4522    0.0793 C.2       1 <0>        -0.1040
     18 C14        -6.2990    1.9834   -1.1464 C.ar      1 <0>        -0.1329
     19 C15        -4.9393    1.6610   -1.1246 C.ar      1 <0>        -0.1221
     20 C16        -4.3180    1.2225   -2.2731 C.ar      1 <0>        -0.1627
     21 C17        -5.0388    1.0992   -3.4553 C.ar      1 <0>         0.0988
     22 C18        -6.3889    1.4167   -3.4874 C.ar      1 <0>        -0.1826
     23 C19        -7.0256    1.8533   -2.3389 C.ar      1 <0>         0.1104
     24 O2         -8.3484    2.1591   -2.3676 O.3       1 <0>        -0.2875
     25 O3         -4.4189    0.6657   -4.5835 O.3       1 <0>        -0.2901
     26 H1         -2.1177    5.4298    6.6580 H         1 <0>         0.0890
     27 H2         -1.9901    7.1918    6.4401 H         1 <0>         0.0796
     28 H3         -3.4884    6.3450    5.9857 H         1 <0>         0.0901
     29 H4         -0.0128    7.0580    5.0593 H         1 <0>         0.1336
     30 H5          0.9084    6.7439    2.8282 H         1 <0>         0.1485
     31 H6         -3.5968    5.0342    3.9759 H         1 <0>         0.1915
     32 H7         -2.8453    3.8725   -0.6148 H         1 <0>         0.1302
     33 H8          0.1387    3.7787   -1.4769 H         1 <0>         0.0940
     34 H9          0.2484    5.5468   -1.6496 H         1 <0>         0.1043
     35 H10        -1.2144    4.6889   -2.1902 H         1 <0>         0.0823
     36 H11        -4.5949    3.3674   -0.1509 H         1 <0>         0.2287
     37 H12        -8.0259    2.2851    0.2147 H         1 <0>         0.1977
     38 H13        -4.3761    1.7559   -0.2080 H         1 <0>         0.1566
     39 H14        -3.2673    0.9733   -2.2550 H         1 <0>         0.1474
     40 H15        -6.9445    1.3189   -4.4084 H         1 <0>         0.1558
     41 H16        -8.5373    3.0608   -2.6613 H         1 <0>         0.2379
     42 H17        -4.4409   -0.2940   -4.7003 H         1 <0>         0.2369
@<TRIPOS>BOND
     1    1    2 1
     2    1   26 1
     3    1   27 1
     4    1   28 1
     5    2    7 ar
     6    2    3 ar
     7    3    4 ar
     8    3   29 1
     9    4    5 ar
    10    4   30 1
    11    5   11 ar
    12    5    6 ar
    13    6    7 ar
    14    6    8 ar
    15    7   31 1
    16    8    9 ar
    17    8   13 1
    18    9   10 ar
    19    9   32 1
    20   10   11 ar
    21   10   12 1
    22   12   33 1
    23   12   34 1
    24   12   35 1
    25   13   14 2
    26   13   15 am
    27   15   16 1
    28   15   36 1
    29   16   17 2
    30   17   18 1
    31   17   37 1
    32   18   23 ar
    33   18   19 ar
    34   19   20 ar
    35   19   38 1
    36   20   21 ar
    37   20   39 1
    38   21   22 ar
    39   21   25 1
    40   22   23 ar
    41   22   40 1
    42   23   24 1
    43   24   41 1
    44   25   42 1
@<TRIPOS>MOLECULE
ZINC04465480
   43    45     0     0     0
SMALL
USER_CHARGES

@<TRIPOS>ATOM
      1 C1          1.0303    8.7983    5.7011 C.3       1 <0>        -0.1659
      2 C2          0.9006    7.3488    5.3097 C.ar      1 <0>        -0.0066
      3 C3         -0.1997    6.6235    5.7584 C.ar      1 <0>        -0.1517
      4 C4         -0.3302    5.2863    5.4034 C.ar      1 <0>        -0.0851
      5 C5          0.6818    4.7171    4.5874 C.ar      1 <0>        -0.0195
      6 C6          0.6239    3.3778    4.1860 C.ar      1 <0>        -0.1583
      7 C7          1.6261    2.8630    3.3933 C.ar      1 <0>         0.0947
      8 C8          2.6996    3.6659    2.9932 C.ar      1 <0>        -0.1916
      9 C9          2.7748    4.9705    3.3665 C.ar      1 <0>        -0.0680
     10 C10         1.7678    5.5293    4.1760 C.ar      1 <0>        -0.0061
     11 N1          1.8263    6.8080    4.5567 N.ar      1 <0>        -0.1322
     12 O1          1.5744    1.5634    3.0015 O.3       1 <0>        -0.2012
     13 C11         2.6440    1.0904    2.1804 C.3       1 <0>        -0.0650
     14 C12        -1.4834    4.4841    5.8606 C.2       1 <0>         0.3630
     15 O2         -1.6340    3.3483    5.4528 O.2       1 <0>        -0.3159
     16 N2         -2.3686    5.0109    6.7297 N.am      1 <0>        -0.3428
     17 N3         -3.4021    4.2174    7.2444 N.2       1 <0>         0.0205
     18 C13        -4.3212    4.7517    7.9905 C.2       1 <0>        -0.1057
     19 C14        -4.4075    6.2165    8.1170 C.ar      1 <0>        -0.1319
     20 C15        -3.9523    7.0381    7.0822 C.ar      1 <0>        -0.1223
     21 C16        -4.0348    8.4077    7.2045 C.ar      1 <0>        -0.1629
     22 C17        -4.5700    8.9765    8.3545 C.ar      1 <0>         0.0982
     23 C18        -5.0249    8.1697    9.3872 C.ar      1 <0>        -0.1826
     24 C19        -4.9519    6.7924    9.2741 C.ar      1 <0>         0.1100
     25 O3         -5.4017    6.0013   10.2820 O.3       1 <0>        -0.2874
     26 O4         -4.6482   10.3280    8.4672 O.3       1 <0>        -0.2903
     27 H1          1.5851    8.8738    6.6363 H         1 <0>         0.0948
     28 H2          1.5619    9.3398    4.9185 H         1 <0>         0.1028
     29 H3          0.0379    9.2297    5.8315 H         1 <0>         0.0805
     30 H4         -0.9470    7.0970    6.3778 H         1 <0>         0.1308
     31 H5         -0.2003    2.7522    4.4957 H         1 <0>         0.2046
     32 H6          3.4783    3.2436    2.3755 H         1 <0>         0.1386
     33 H7          3.6085    5.5772    3.0452 H         1 <0>         0.1497
     34 H8          2.4802    0.0400    1.9399 H         1 <0>         0.1111
     35 H9          3.5876    1.1977    2.7154 H         1 <0>         0.0670
     36 H10         2.6802    1.6726    1.2597 H         1 <0>         0.0672
     37 H11        -2.2902    5.9396    6.9987 H         1 <0>         0.2279
     38 H12        -5.0222    4.1219    8.5181 H         1 <0>         0.1976
     39 H13        -3.5360    6.5996    6.1873 H         1 <0>         0.1568
     40 H14        -3.6828    9.0417    6.4042 H         1 <0>         0.1470
     41 H15        -5.4402    8.6167   10.2784 H         1 <0>         0.1556
     42 H16        -4.7526    5.8499   10.9827 H         1 <0>         0.2378
     43 H17        -5.4746   10.7033    8.1337 H         1 <0>         0.2366
@<TRIPOS>BOND
     1    1    2 1
     2    1   27 1
     3    1   28 1
     4    1   29 1
     5    2   11 ar
     6    2    3 ar
     7    3    4 ar
     8    3   30 1
     9    4    5 ar
    10    4   14 1
    11    5   10 ar
    12    5    6 ar
    13    6    7 ar
    14    6   31 1
    15    7    8 ar
    16    7   12 1
    17    8    9 ar
    18    8   32 1
    19    9   10 ar
    20    9   33 1
    21   10   11 ar
    22   12   13 1
    23   13   34 1
    24   13   35 1
    25   13   36 1
    26   14   15 2
    27   14   16 am
    28   16   17 1
    29   16   37 1
    30   17   18 2
    31   18   19 1
    32   18   38 1
    33   19   24 ar
    34   19   20 ar
    35   20   21 ar
    36   20   39 1
    37   21   22 ar
    38   21   40 1
    39   22   23 ar
    40   22   26 1
    41   23   24 ar
    42   23   41 1
    43   24   25 1
    44   25   42 1
    45   26   43 1
@<TRIPOS>MOLECULE
ZINC04465605
   40    42     0     0     0
SMALL
USER_CHARGES

@<TRIPOS>ATOM
      1 C1         -7.4691    3.0982   -0.2575 C.ar      1 <0>        -0.0949
      2 C2         -7.6697    4.4609   -0.2474 C.ar      1 <0>        -0.1254
      3 C3         -6.6544    5.3145    0.1634 C.ar      1 <0>         0.0245
      4 C4         -5.4237    4.7944    0.5693 C.ar      1 <0>        -0.0051
      5 C5         -5.2165    3.4298    0.5676 C.ar      1 <0>        -0.0416
      6 C6         -6.2384    2.5696    0.1478 C.ar      1 <0>        -0.0762
      7 C7         -6.0213    1.1162    0.1386 C.2       1 <0>        -0.0074
      8 C8         -4.8659    0.6088   -0.3437 C.2       1 <0>        -0.2168
      9 C9         -3.9701    1.4422   -1.0601 C.2       1 <0>         0.3412
     10 O1         -4.2953    2.5783   -1.3488 O.2       1 <0>        -0.3562
     11 O2         -2.7569    0.9752   -1.4216 O.3       1 <0>        -0.2339
     12 C10        -1.9057    1.8693   -2.1414 C.3       1 <0>        -0.0200
     13 C11        -0.6039    1.1787   -2.4570 C.2       1 <0>         0.2886
     14 O3         -0.4230    0.0336   -2.1007 O.2       1 <0>        -0.3180
     15 N1          0.3570    1.8317   -3.1401 N.am      1 <0>        -0.2625
     16 C12         1.5525    1.1944   -3.4355 C.2       1 <0>        -0.0854
     17 C13         2.6492    1.6941   -4.1277 C.2       1 <0>        -0.2743
     18 C14         3.7753    0.8054   -4.2887 C.2       1 <0>        -0.1279
     19 C15         3.6629   -0.4292   -3.7665 C.2       1 <0>        -0.3791
     20 S1          2.0380   -0.4195   -3.0379 S.3       1 <0>         0.5068
     21 C16         2.6633    3.0584   -4.6647 C.2       1 <0>         0.3843
     22 O4          1.6985    3.7838   -4.5087 O.2       1 <0>        -0.4141
     23 N2          3.7447    3.5093   -5.3309 N.am      1 <0>        -0.4223
     24 O5         -4.6076    5.8313    0.9202 O.3       1 <0>        -0.2068
     25 C17        -5.4819    6.9585    1.1157 C.3       1 <0>         0.1067
     26 O6         -6.6048    6.6740    0.2610 O.3       1 <0>        -0.2069
     27 H1         -8.2612    2.4379   -0.5785 H         1 <0>         0.1382
     28 H2         -8.6202    4.8671   -0.5606 H         1 <0>         0.1437
     29 H3         -4.2664    3.0265    0.8852 H         1 <0>         0.1421
     30 H4         -6.7855    0.4537    0.5175 H         1 <0>         0.1456
     31 H5         -4.6245   -0.4316   -0.1836 H         1 <0>         0.1545
     32 H6         -1.7102    2.7529   -1.5339 H         1 <0>         0.1148
     33 H7         -2.3934    2.1671   -3.0696 H         1 <0>         0.1157
     34 H8          0.2123    2.7475   -3.4251 H         1 <0>         0.2776
     35 H9          4.6683    1.1169   -4.8101 H         1 <0>         0.1376
     36 H10         4.3844   -1.2326   -3.7844 H         1 <0>         0.1878
     37 H11         4.5136    2.9312   -5.4552 H         1 <0>         0.2181
     38 H12         3.7540    4.4118   -5.6861 H         1 <0>         0.2296
     39 H13        -5.7991    7.0209    2.1566 H         1 <0>         0.0864
     40 H14        -4.9908    7.8817    0.8081 H         1 <0>         0.1307
@<TRIPOS>BOND
     1    1    6 ar
     2    1    2 ar
     3    1   27 1
     4    2    3 ar
     5    2   28 1
     6    3   26 1
     7    3    4 ar
     8    4    5 ar
     9    4   24 1
    10    5    6 ar
    11    5   29 1
    12    6    7 1
    13    7    8 2
    14    7   30 1
    15    8    9 1
    16    8   31 1
    17    9   10 2
    18    9   11 1
    19   11   12 1
    20   12   13 1
    21   12   32 1
    22   12   33 1
    23   13   14 2
    24   13   15 am
    25   15   16 1
    26   15   34 1
    27   16   20 1
    28   16   17 2
    29   17   18 1
    30   17   21 1
    31   18   19 2
    32   18   35 1
    33   19   20 1
    34   19   36 1
    35   21   22 2
    36   21   23 am
    37   23   37 1
    38   23   38 1
    39   24   25 1
    40   25   26 1
    41   25   39 1
    42   25   40 1
@<TRIPOS>MOLECULE
ZINC04465794
   45    47     0     0     0
SMALL
USER_CHARGES

@<TRIPOS>ATOM
      1 C1         -2.4746    3.6348   -1.1770 C.ar      1 <0>        -0.1366
      2 C2         -3.6696    2.9405   -1.0942 C.ar      1 <0>        -0.1033
      3 C3         -3.6862    1.6259   -0.6680 C.ar      1 <0>        -0.1517
      4 C4         -2.5039    0.9934   -0.3201 C.ar      1 <0>         0.0957
      5 C5         -1.2917    1.6923   -0.4023 C.ar      1 <0>        -0.1192
      6 C6         -1.2890    3.0222   -0.8294 C.ar      1 <0>        -0.1380
      7 C7         -0.0280    1.0297   -0.0342 C.2       1 <0>        -0.1077
      8 N1          0.9755    1.7356    0.3902 N.2       1 <0>         0.0215
      9 N2          0.7957    3.0881    0.7085 N.am      1 <0>        -0.3464
     10 C8          1.8581    3.8509    1.0338 C.2       1 <0>         0.3573
     11 O1          2.9592    3.3461    1.1402 O.2       1 <0>        -0.3121
     12 C9          1.6849    5.3009    1.2612 C.ar      1 <0>        -0.1493
     13 C10         0.4083    5.8659    1.2426 C.ar      1 <0>        -0.0612
     14 C11         0.2532    7.2190    1.4609 C.ar      1 <0>        -0.1585
     15 C12         1.3603    8.0178    1.6873 C.ar      1 <0>        -0.0060
     16 C13         2.6285    7.4653    1.7014 C.ar      1 <0>        -0.7679
     17 C14         2.7973    6.1124    1.4897 C.ar      1 <0>         0.0341
     18 S1          4.0314    8.4917    1.9895 S.o2      1 <0>         2.7786
     19 O2          3.5630    9.6294    2.7006 O.2       1 <0>        -0.9118
     20 O3          5.0562    7.6466    2.4943 O.2       1 <0>        -0.9015
     21 N3          4.5508    9.0364    0.5144 N.pl3     1 <0>        -0.8503
     22 C15         5.5406    8.3704   -0.3449 C.3       1 <0>         0.0006
     23 C16         5.7247    9.2505   -1.5990 C.3       1 <0>        -0.1708
     24 C17         5.2585   10.6479   -1.1118 C.3       1 <0>        -0.1690
     25 C18         4.1022   10.2727   -0.1517 C.3       1 <0>        -0.0051
     26 O4         -2.5192   -0.2985    0.0984 O.3       1 <0>        -0.2882
     27 H1         -2.4714    4.6618   -1.5111 H         1 <0>         0.1356
     28 H2         -4.5942    3.4292   -1.3640 H         1 <0>         0.1375
     29 H3         -4.6224    1.0911   -0.6058 H         1 <0>         0.1458
     30 H4         -0.3595    3.5686   -0.8911 H         1 <0>         0.1520
     31 H5          0.0649   -0.0428   -0.1217 H         1 <0>         0.1980
     32 H6         -0.0935    3.4755    0.6947 H         1 <0>         0.2261
     33 H7         -0.4562    5.2443    1.0619 H         1 <0>         0.1281
     34 H8         -0.7341    7.6568    1.4505 H         1 <0>         0.1398
     35 H9          1.2337    9.0774    1.8536 H         1 <0>         0.1530
     36 H10         3.7879    5.6823    1.5013 H         1 <0>         0.1782
     37 H11         6.4879    8.2751    0.1858 H         1 <0>         0.0979
     38 H12         5.1756    7.3854   -0.6360 H         1 <0>         0.0793
     39 H13         5.0969    8.8982   -2.4174 H         1 <0>         0.0912
     40 H14         6.7724    9.2764   -1.8987 H         1 <0>         0.0968
     41 H15         4.8952   11.2507   -1.9441 H         1 <0>         0.0937
     42 H16         6.0578   11.1624   -0.5784 H         1 <0>         0.0993
     43 H17         3.1865   10.0898   -0.7139 H         1 <0>         0.0743
     44 H18         3.9464   11.0637    0.5819 H         1 <0>         0.1048
     45 H19        -2.6998   -0.4040    1.0425 H         1 <0>         0.2352
@<TRIPOS>BOND
     1    1    6 ar
     2    1    2 ar
     3    1   27 1
     4    2    3 ar
     5    2   28 1
     6    3    4 ar
     7    3   29 1
     8    4    5 ar
     9    4   26 1
    10    5    6 ar
    11    5    7 1
    12    6   30 1
    13    7    8 2
    14    7   31 1
    15    8    9 1
    16    9   10 am
    17    9   32 1
    18   10   11 2
    19   10   12 1
    20   12   17 ar
    21   12   13 ar
    22   13   14 ar
    23   13   33 1
    24   14   15 ar
    25   14   34 1
    26   15   16 ar
    27   15   35 1
    28   16   17 ar
    29   16   18 1
    30   17   36 1
    31   18   19 2
    32   18   20 2
    33   18   21 1
    34   21   25 1
    35   21   22 1
    36   22   23 1
    37   22   37 1
    38   22   38 1
    39   23   24 1
    40   23   39 1
    41   23   40 1
    42   24   25 1
    43   24   41 1
    44   24   42 1
    45   25   43 1
    46   25   44 1
    47   26   45 1
@<TRIPOS>MOLECULE
ZINC04465805
   41    43     0     0     0
SMALL
USER_CHARGES

@<TRIPOS>ATOM
      1 C1          2.1038    5.6800   -0.1567 C.ar      1 <0>        -0.0566
      2 C2          2.3982    7.0231   -0.2145 C.ar      1 <0>        -0.2230
      3 C3          3.7236    7.4447   -0.2743 C.ar      1 <0>         0.1461
      4 C4          4.7554    6.5102   -0.2705 C.ar      1 <0>        -0.2229
      5 C5          4.4679    5.1658   -0.2080 C.ar      1 <0>        -0.0123
      6 C6          3.1379    4.7390   -0.1478 C.ar      1 <0>        -0.1907
      7 C7          2.8261    3.2991   -0.0812 C.2       1 <0>         0.3708
      8 O1          3.7269    2.4811   -0.0786 O.2       1 <0>        -0.3297
      9 N1          1.5435    2.8892   -0.0232 N.am      1 <0>        -0.3249
     10 N2          1.2474    1.5213    0.0400 N.2       1 <0>         0.0200
     11 C8          0.0097    1.1198   -0.0149 C.2       1 <0>        -0.0737
     12 C9         -1.0779    2.0992   -0.0167 C.2       1 <0>        -0.3007
     13 C10        -2.4444    1.8847    0.0490 C.2       1 <0>        -0.1118
     14 C11        -3.2800    2.9753    0.0325 C.2       1 <0>        -0.2114
     15 C12        -2.7368    4.2280   -0.0477 C.2       1 <0>        -0.1562
     16 S1         -0.9866    3.8804   -0.0962 S.3       1 <0>         0.2825
     17 N3         -3.3831    5.4591   -0.0785 N.pl3     1 <0>        -0.1419
     18 C13        -4.3469    5.5205   -1.1869 C.3       1 <0>        -0.1123
     19 C14        -5.0764    6.8660   -1.1476 C.3       1 <0>        -0.0153
     20 O2         -4.1168    7.9248   -1.2053 O.3       1 <0>        -0.2760
     21 C15        -3.1629    7.8958   -0.1401 C.3       1 <0>        -0.0120
     22 C16        -2.4139    6.5608   -0.1692 C.3       1 <0>        -0.1239
     23 N4          4.0176    8.8027   -0.3376 N.pl3     1 <0>        -0.4098
     24 H1          1.0753    5.3534   -0.1144 H         1 <0>         0.1269
     25 H2          1.6001    7.7506   -0.2172 H         1 <0>         0.1286
     26 H3          5.7826    6.8405   -0.3170 H         1 <0>         0.1362
     27 H4          5.2688    4.4413   -0.2050 H         1 <0>         0.1582
     28 H5          0.8254    3.5413   -0.0253 H         1 <0>         0.2122
     29 H6         -0.2139    0.0644   -0.0637 H         1 <0>         0.1936
     30 H7         -2.8440    0.8834    0.1122 H         1 <0>         0.1483
     31 H8         -4.3510    2.8452    0.0819 H         1 <0>         0.1503
     32 H9         -3.8183    5.4207   -2.1349 H         1 <0>         0.0846
     33 H10        -5.0701    4.7113   -1.0857 H         1 <0>         0.1097
     34 H11        -5.6484    6.9430   -0.2229 H         1 <0>         0.0826
     35 H12        -5.7514    6.9397   -2.0003 H         1 <0>         0.1165
     36 H13        -3.6791    8.0028    0.8139 H         1 <0>         0.0839
     37 H14        -2.4533    8.7139   -0.2637 H         1 <0>         0.1141
     38 H15        -1.7261    6.5109    0.6749 H         1 <0>         0.1110
     39 H16        -1.8544    6.4776   -1.1009 H         1 <0>         0.0840
     40 H17         4.9407    9.0977   -0.3790 H         1 <0>         0.2237
     41 H18         3.2995    9.4548   -0.3403 H         1 <0>         0.2213
@<TRIPOS>BOND
     1    1    6 ar
     2    1    2 ar
     3    1   24 1
     4    2    3 ar
     5    2   25 1
     6    3    4 ar
     7    3   23 1
     8    4    5 ar
     9    4   26 1
    10    5    6 ar
    11    5   27 1
    12    6    7 1
    13    7    8 2
    14    7    9 am
    15    9   10 1
    16    9   28 1
    17   10   11 2
    18   11   12 1
    19   11   29 1
    20   12   16 1
    21   12   13 2
    22   13   14 1
    23   13   30 1
    24   14   15 2
    25   14   31 1
    26   15   16 1
    27   15   17 1
    28   17   22 1
    29   17   18 1
    30   18   19 1
    31   18   32 1
    32   18   33 1
    33   19   20 1
    34   19   34 1
    35   19   35 1
    36   20   21 1
    37   21   22 1
    38   21   36 1
    39   21   37 1
    40   22   38 1
    41   22   39 1
    42   23   40 1
    43   23   41 1
@<TRIPOS>MOLECULE
ZINC04465903
   42    44     0     0     0
SMALL
USER_CHARGES

@<TRIPOS>ATOM
      1 C1          0.3011    2.3437   -1.8365 C.3       1 <0>        -0.1627
      2 C2          0.7727    1.4391   -0.7274 C.ar      1 <0>        -0.0138
      3 C3          2.0056    0.8157   -0.8307 C.ar      1 <0>         0.0034
      4 C4          2.4300   -0.0250    0.2123 C.ar      1 <0>        -0.0914
      5 C5          1.5789   -0.1918    1.3124 C.ar      1 <0>        -0.1139
      6 C6          0.3691    0.4691    1.3290 C.ar      1 <0>        -0.0187
      7 N1          0.0066    1.2504    0.3292 N.ar      1 <0>        -0.1486
      8 C7          1.9802   -1.0806    2.4614 C.3       1 <0>         0.0416
      9 O1          0.9463   -1.0797    3.4479 O.3       1 <0>        -0.3562
     10 C8          3.7331   -0.7109    0.1508 C.2       1 <0>        -0.1349
     11 N2          4.8204   -0.0241   -0.0243 N.2       1 <0>         0.0510
     12 N3          4.7738    1.3761   -0.0137 N.am      1 <0>        -0.3243
     13 C9          5.9111    2.0891   -0.1349 C.2       1 <0>         0.3185
     14 O2          6.9628    1.5223   -0.3449 O.2       1 <0>        -0.2845
     15 C10         5.8761    3.5905   -0.0097 C.3       1 <0>        -0.0227
     16 H1          5.3941    3.8700    0.9271 H         1 <0>         0.1163
     17 C11         5.1010    4.1904   -1.1907 C.3       1 <0>        -0.0436
     18 O3          5.0987    5.6151   -1.0475 O.3       1 <0>        -0.2036
     19 C12         6.2888    6.2008   -0.7420 C.ar      1 <0>         0.0120
     20 C13         6.4460    7.5650   -0.9371 C.ar      1 <0>        -0.1212
     21 C14         7.6462    8.1751   -0.6258 C.ar      1 <0>        -0.1293
     22 C15         8.6932    7.4279   -0.1191 C.ar      1 <0>        -0.1281
     23 C16         8.5436    6.0680    0.0766 C.ar      1 <0>        -0.1170
     24 C17         7.3420    5.4492   -0.2350 C.ar      1 <0>         0.0197
     25 O4          7.2104    4.1087   -0.0396 O.3       1 <0>        -0.1713
     26 O5          2.7906    1.0137   -1.9213 O.3       1 <0>        -0.2867
     27 H2          0.6313    3.3635   -1.6389 H         1 <0>         0.1008
     28 H3          0.7182    2.0041   -2.7846 H         1 <0>         0.0851
     29 H4         -0.7874    2.3179   -1.8884 H         1 <0>         0.1041
     30 H5         -0.2923    0.3458    2.1738 H         1 <0>         0.1912
     31 H6          2.1348   -2.0966    2.0981 H         1 <0>         0.0748
     32 H7          2.9044   -0.7081    2.9033 H         1 <0>         0.0807
     33 H8          1.1372   -1.6322    4.2182 H         1 <0>         0.2226
     34 H9          3.7832   -1.7850    0.2515 H         1 <0>         0.1884
     35 H10         3.9231    1.8324    0.0809 H         1 <0>         0.2233
     36 H11         5.5868    3.9154   -2.1269 H         1 <0>         0.1092
     37 H12         4.0763    3.8188   -1.1846 H         1 <0>         0.1247
     38 H13         5.6295    8.1510   -1.3324 H         1 <0>         0.1444
     39 H14         7.7664    9.2375   -0.7782 H         1 <0>         0.1353
     40 H15         9.6297    7.9077    0.1243 H         1 <0>         0.1363
     41 H16         9.3630    5.4866    0.4728 H         1 <0>         0.1495
     42 H17         2.5849    0.4309   -2.6650 H         1 <0>         0.2394
@<TRIPOS>BOND
     1    1    2 1
     2    1   27 1
     3    1   28 1
     4    1   29 1
     5    2    7 ar
     6    2    3 ar
     7    3    4 ar
     8    3   26 1
     9    4    5 ar
    10    4   10 1
    11    5    6 ar
    12    5    8 1
    13    6    7 ar
    14    6   30 1
    15    8    9 1
    16    8   31 1
    17    8   32 1
    18    9   33 1
    19   10   11 2
    20   10   34 1
    21   11   12 1
    22   12   13 am
    23   12   35 1
    24   13   14 2
    25   13   15 1
    26   15   16 1
    27   15   25 1
    28   15   17 1
    29   17   18 1
    30   17   36 1
    31   17   37 1
    32   18   19 1
    33   19   24 ar
    34   19   20 ar
    35   20   21 ar
    36   20   38 1
    37   21   22 ar
    38   21   39 1
    39   22   23 ar
    40   22   40 1
    41   23   24 ar
    42   23   41 1
    43   24   25 1
    44   26   42 1
@<TRIPOS>MOLECULE
ZINC04465966
   46    48     0     0     0
SMALL
USER_CHARGES

@<TRIPOS>ATOM
      1 C1          1.1006   -0.1467    1.1030 C.3       1 <0>        -0.2041
      2 C2          0.1968    0.6403    2.0542 C.3       1 <0>         0.0774
      3 C3         -1.2597    0.2970    1.8122 C.2       1 <0>         0.3297
      4 O1         -1.8923    0.4662    0.7917 O.2       1 <0>        -0.2859
      5 N1         -1.7055   -0.2345    2.9676 N.am      1 <0>        -0.2827
      6 C4         -0.7432   -0.2743    3.8962 C.2       1 <0>         0.4025
      7 O2         -0.9052   -0.7112    5.0188 O.2       1 <0>        -0.3720
      8 N2          0.4238    0.2233    3.4486 N.am      1 <0>        -0.3910
      9 N3         -3.0148   -0.6900    3.1709 N.2       1 <0>        -0.0028
     10 C5         -3.7305   -0.1981    4.1354 C.2       1 <0>        -0.0210
     11 C6         -3.2364    0.9582    4.9039 C.ar      1 <0>        -0.0945
     12 C7         -2.2843    1.8156    4.3475 C.ar      1 <0>        -0.1392
     13 C8         -1.8287    2.9017    5.0729 C.ar      1 <0>         0.0897
     14 C9         -2.3080    3.1351    6.3555 C.ar      1 <0>        -0.1887
     15 C10        -3.2456    2.2882    6.9148 C.ar      1 <0>        -0.1127
     16 C11        -3.7151    1.1996    6.1984 C.ar      1 <0>         0.0707
     17 O3         -4.6377    0.3683    6.7495 O.3       1 <0>        -0.2934
     18 O4         -0.9057    3.7403    4.5308 O.3       1 <0>        -0.2039
     19 C12        -0.4749    4.8390    5.3366 C.3       1 <0>        -0.0660
     20 C13         0.4285    2.1213    1.8993 C.ar      1 <0>        -0.1369
     21 C14        -0.3207    2.8459    0.9908 C.ar      1 <0>        -0.0742
     22 C15        -0.1141    4.2046    0.8510 C.ar      1 <0>        -0.2135
     23 C16         0.8537    4.8401    1.6154 C.ar      1 <0>         0.1060
     24 C17         1.6080    4.1099    2.5222 C.ar      1 <0>        -0.1603
     25 C18         1.3940    2.7523    2.6620 C.ar      1 <0>        -0.0604
     26 O5          1.0627    6.1757    1.4757 O.3       1 <0>        -0.2152
     27 C19         0.2493    6.8635    0.5232 C.3       1 <0>        -0.0639
     28 H1          0.8922   -1.2120    1.2021 H         1 <0>         0.0924
     29 H2          2.1443    0.0442    1.3524 H         1 <0>         0.0896
     30 H3          0.9090    0.1671    0.0769 H         1 <0>         0.1050
     31 H4          1.2529    0.2941    3.9471 H         1 <0>         0.2749
     32 H5         -4.6881   -0.6363    4.3748 H         1 <0>         0.1977
     33 H6         -1.9075    1.6330    3.3520 H         1 <0>         0.1567
     34 H7         -1.9458    3.9825    6.9185 H         1 <0>         0.1398
     35 H8         -3.6135    2.4757    7.9127 H         1 <0>         0.1446
     36 H9         -4.2587   -0.4119    7.1769 H         1 <0>         0.2346
     37 H10        -1.3315    5.4664    5.5833 H         1 <0>         0.0684
     38 H11        -0.0244    4.4617    6.2546 H         1 <0>         0.0668
     39 H12         0.2597    5.4271    4.7864 H         1 <0>         0.1146
     40 H13        -1.0709    2.3499    0.3928 H         1 <0>         0.1623
     41 H14        -0.7029    4.7710    0.1446 H         1 <0>         0.1399
     42 H15         2.3623    4.6022    3.1181 H         1 <0>         0.1414
     43 H16         1.9809    2.1833    3.3678 H         1 <0>         0.1275
     44 H17         0.4097    6.4369   -0.4669 H         1 <0>         0.0705
     45 H18        -0.8001    6.7585    0.7985 H         1 <0>         0.0709
     46 H19         0.5179    7.9198    0.5115 H         1 <0>         0.1085
@<TRIPOS>BOND
     1    1    2 1
     2    1   28 1
     3    1   29 1
     4    1   30 1
     5    2    8 1
     6    2    3 1
     7    2   20 1
     8    3    4 2
     9    3    5 am
    10    5    6 am
    11    5    9 1
    12    6    7 2
    13    6    8 am
    14    8   31 1
    15    9   10 2
    16   10   11 1
    17   10   32 1
    18   11   16 ar
    19   11   12 ar
    20   12   13 ar
    21   12   33 1
    22   13   14 ar
    23   13   18 1
    24   14   15 ar
    25   14   34 1
    26   15   16 ar
    27   15   35 1
    28   16   17 1
    29   17   36 1
    30   18   19 1
    31   19   37 1
    32   19   38 1
    33   19   39 1
    34   20   25 ar
    35   20   21 ar
    36   21   22 ar
    37   21   40 1
    38   22   23 ar
    39   22   41 1
    40   23   24 ar
    41   23   26 1
    42   24   25 ar
    43   24   42 1
    44   25   43 1
    45   26   27 1
    46   27   44 1
    47   27   45 1
    48   27   46 1
@<TRIPOS>MOLECULE
ZINC04466204
   45    48     0     0     0
SMALL
USER_CHARGES

@<TRIPOS>ATOM
      1 C1          1.8647    0.6872   -7.4875 C.3       1 <0>        -0.1742
      2 C2          3.0225    1.0152   -6.5804 C.ar      1 <0>        -0.0587
      3 C3          4.2526    1.3428   -7.1212 C.ar      1 <0>        -0.1416
      4 C4          5.3172    1.6448   -6.2924 C.ar      1 <0>        -0.1096
      5 C5          5.1554    1.6198   -4.9208 C.ar      1 <0>        -0.1641
      6 C6          3.9218    1.2913   -4.3747 C.ar      1 <0>         0.0612
      7 C7          2.8557    0.9833   -5.2099 C.ar      1 <0>        -0.1236
      8 N1          3.7545    1.2651   -2.9857 N.am      1 <0>        -0.3240
      9 C8          2.5841    1.6515   -2.4405 C.2       1 <0>         0.2869
     10 O1          1.6486    1.9421   -3.1556 O.2       1 <0>        -0.3364
     11 C9          2.4378    1.7225   -0.9423 C.3       1 <0>        -0.0167
     12 N2          1.0828    2.1652   -0.6044 N.am      1 <0>        -0.3073
     13 C10         0.7049    3.4494   -0.4423 C.2       1 <0>         0.3514
     14 O2          1.4085    4.4371   -0.5463 O.2       1 <0>        -0.2935
     15 C11        -0.7285    3.4163   -0.1136 C.2       1 <0>        -0.0684
     16 C12        -1.5415    4.4736    0.1356 C.2       1 <0>        -0.0646
     17 C13        -0.9740    5.8221    0.2637 C.ar      1 <0>        -0.0689
     18 C14        -1.6776    6.9296   -0.2248 C.ar      1 <0>        -0.0967
     19 C15        -1.1426    8.1928   -0.1031 C.ar      1 <0>        -0.1241
     20 C16         0.0938    8.3738    0.5030 C.ar      1 <0>         0.0215
     21 C17         0.8014    7.2746    0.9924 C.ar      1 <0>        -0.0004
     22 C18         0.2697    6.0052    0.8798 C.ar      1 <0>        -0.0543
     23 O3          1.9736    7.7178    1.5345 O.3       1 <0>        -0.2061
     24 C19         2.1630    9.0441    1.0073 C.3       1 <0>         0.1071
     25 O4          0.8243    9.5013    0.7400 O.3       1 <0>        -0.2081
     26 N3         -1.0753    2.0582   -0.1188 N.am      1 <0>        -0.3221
     27 C20         0.0324    1.3533   -0.4095 C.2       1 <0>         0.4130
     28 O5          0.0753    0.1406   -0.4901 O.2       1 <0>        -0.3580
     29 H1          1.8557   -0.3834   -7.6924 H         1 <0>         0.0851
     30 H2          0.9311    0.9722   -7.0025 H         1 <0>         0.0892
     31 H3          1.9699    1.2354   -8.4236 H         1 <0>         0.0807
     32 H4          4.3818    1.3624   -8.1933 H         1 <0>         0.1300
     33 H5          6.2764    1.9003   -6.7178 H         1 <0>         0.1305
     34 H6          5.9874    1.8558   -4.2739 H         1 <0>         0.1272
     35 H7          1.8961    0.7230   -4.7881 H         1 <0>         0.1658
     36 H8          4.4809    0.9688   -2.4152 H         1 <0>         0.2310
     37 H9          3.1623    2.4303   -0.5396 H         1 <0>         0.1304
     38 H10         2.6156    0.7366   -0.5127 H         1 <0>         0.1324
     39 H11        -2.6059    4.3235    0.2398 H         1 <0>         0.1467
     40 H12        -2.6396    6.7934   -0.6965 H         1 <0>         0.1398
     41 H13        -1.6869    9.0461   -0.4802 H         1 <0>         0.1449
     42 H14         0.8145    5.1547    1.2622 H         1 <0>         0.1528
     43 H15         2.7470    9.0107    0.0876 H         1 <0>         0.0918
     44 H16         2.6459    9.6842    1.7457 H         1 <0>         0.1289
     45 H17        -1.9560    1.6922    0.0580 H         1 <0>         0.2731
@<TRIPOS>BOND
     1    1    2 1
     2    1   29 1
     3    1   30 1
     4    1   31 1
     5    2    7 ar
     6    2    3 ar
     7    3    4 ar
     8    3   32 1
     9    4    5 ar
    10    4   33 1
    11    5    6 ar
    12    5   34 1
    13    6    7 ar
    14    6    8 1
    15    7   35 1
    16    8    9 am
    17    8   36 1
    18    9   10 2
    19    9   11 1
    20   11   12 1
    21   11   37 1
    22   11   38 1
    23   12   27 am
    24   12   13 am
    25   13   14 2
    26   13   15 1
    27   15   16 2
    28   15   26 1
    29   16   17 1
    30   16   39 1
    31   17   22 ar
    32   17   18 ar
    33   18   19 ar
    34   18   40 1
    35   19   20 ar
    36   19   41 1
    37   20   25 1
    38   20   21 ar
    39   21   22 ar
    40   21   23 1
    41   22   42 1
    42   23   24 1
    43   24   25 1
    44   24   43 1
    45   24   44 1
    46   26   27 am
    47   26   45 1
    48   27   28 2
@<TRIPOS>MOLECULE
ZINC04467850
   42    44     0     0     0
SMALL
USER_CHARGES

@<TRIPOS>ATOM
      1 C1          5.2648    8.5851   -1.0033 C.3       1 <0>        -0.1905
      2 C2          5.8758    7.8952    0.2180 C.3       1 <0>         0.0078
      3 C3          7.3690    8.1244    0.2663 C.ar      1 <0>        -0.1344
      4 C4          8.1302    9.2684    0.3682 C.ar      1 <0>        -0.0707
      5 C5          9.5110    9.1811    0.3832 C.ar      1 <0>        -0.1616
      6 C6         10.1235    7.9440    0.2952 C.ar      1 <0>        -0.0905
      7 C7          9.3651    6.7969    0.1930 C.ar      1 <0>        -0.1673
      8 C8          7.9725    6.8766    0.1777 C.ar      1 <0>         0.0766
      9 N1          7.0099    5.8737    0.0837 N.pl3     1 <0>        -0.2375
     10 C9          5.7322    6.3925    0.1043 C.2       1 <0>         0.0855
     11 C10         4.5837    5.6997    0.0317 C.2       1 <0>        -0.2242
     12 C11         4.6141    4.2555   -0.1983 C.2       1 <0>        -0.1195
     13 N2          3.5089    3.5678   -0.1669 N.2       1 <0>        -0.0148
     14 N3          3.5380    2.1845   -0.3872 N.pl3     1 <0>        -0.2720
     15 C12         2.3570    1.4497   -0.3536 C.2       1 <0>         0.0500
     16 C13         2.3737   -0.0046   -0.5835 C.2       1 <0>         0.3144
     17 O1          3.4214   -0.5817   -0.8063 O.2       1 <0>        -0.3320
     18 N4          1.2112   -0.6882   -0.5442 N.am      1 <0>        -0.3351
     19 H1          1.2074   -1.6762   -0.6988 H         1 <0>         0.2832
     20 C14         0.0566   -0.0422   -0.2972 C.2       1 <0>         0.3691
     21 O2         -0.9844   -0.6704   -0.2645 O.2       1 <0>        -0.3772
     22 N5          0.0336    1.2855   -0.0863 N.am      1 <0>        -0.2927
     23 H2         -0.8125    1.7276    0.0856 H         1 <0>         0.2975
     24 N6          1.2124    2.0401   -0.1170 N.2       1 <0>        -0.0416
     25 C15         7.3168    4.4452   -0.0238 C.3       1 <0>        -0.0571
     26 C16         5.2182    8.3998    1.5040 C.3       1 <0>        -0.1914
     27 H3          4.2006    8.3554   -1.0559 H         1 <0>         0.0837
     28 H4          5.4000    9.6633   -0.9170 H         1 <0>         0.0817
     29 H5          5.7587    8.2282   -1.9071 H         1 <0>         0.0863
     30 H6          7.6492   10.2330    0.4365 H         1 <0>         0.1327
     31 H7         10.1091   10.0767    0.4638 H         1 <0>         0.1343
     32 H8         11.2013    7.8762    0.3069 H         1 <0>         0.1337
     33 H9          9.8504    5.8345    0.1250 H         1 <0>         0.1292
     34 H10         3.6379    6.2090    0.1432 H         1 <0>         0.1650
     35 H11         5.5533    3.7595   -0.3943 H         1 <0>         0.1242
     36 H12         4.3815    1.7391   -0.5632 H         1 <0>         0.2397
     37 H13         6.9990    4.0777   -0.9994 H         1 <0>         0.0811
     38 H14         8.3905    4.2948    0.0891 H         1 <0>         0.0943
     39 H15         6.7894    3.9004    0.7592 H         1 <0>         0.0886
     40 H16         5.6791    7.9126    2.3632 H         1 <0>         0.0870
     41 H17         5.3534    9.4786    1.5822 H         1 <0>         0.0815
     42 H18         4.1534    8.1678    1.4828 H         1 <0>         0.0829
@<TRIPOS>BOND
     1    1    2 1
     2    1   27 1
     3    1   28 1
     4    1   29 1
     5    2   10 1
     6    2    3 1
     7    2   26 1
     8    3    8 ar
     9    3    4 ar
    10    4    5 ar
    11    4   30 1
    12    5    6 ar
    13    5   31 1
    14    6    7 ar
    15    6   32 1
    16    7    8 ar
    17    7   33 1
    18    8    9 1
    19    9   10 1
    20    9   25 1
    21   10   11 2
    22   11   12 1
    23   11   34 1
    24   12   13 2
    25   12   35 1
    26   13   14 1
    27   14   15 1
    28   14   36 1
    29   15   24 2
    30   15   16 1
    31   16   17 2
    32   16   18 am
    33   18   19 1
    34   18   20 am
    35   20   21 2
    36   20   22 am
    37   22   23 1
    38   22   24 1
    39   25   37 1
    40   25   38 1
    41   25   39 1
    42   26   40 1
    43   26   41 1
    44   26   42 1
@<TRIPOS>MOLECULE
ZINC04467883
   45    47     0     0     0
SMALL
USER_CHARGES

@<TRIPOS>ATOM
      1 C1          3.9011   -7.7005    0.3119 C.3       1 <0>        -0.1883
      2 C2          5.0612   -7.3215   -0.6107 C.3       1 <0>        -0.0012
      3 C3          6.3765   -7.7892   -0.0312 C.ar      1 <0>        -0.1327
      4 C4          6.8667   -9.0377    0.2816 C.ar      1 <0>        -0.0729
      5 C5          8.1352   -9.1668    0.8192 C.ar      1 <0>        -0.1561
      6 C6          8.9068   -8.0405    1.0407 C.ar      1 <0>        -0.0929
      7 C7          8.4188   -6.7888    0.7287 C.ar      1 <0>        -0.1561
      8 C8          7.1416   -6.6505    0.1866 C.ar      1 <0>         0.0677
      9 N1          6.4392   -5.5118   -0.2046 N.pl3     1 <0>        -0.2153
     10 C9          5.2057   -5.8166   -0.6897 C.2       1 <0>         0.1411
     11 C10         4.2802   -4.9398   -1.1506 C.2       1 <0>        -0.3811
     12 C11         4.4895   -3.5608   -1.0094 C.2       1 <0>         0.2957
     13 O1          4.7009   -3.0876    0.0899 O.2       1 <0>        -0.3044
     14 C12         4.4525   -2.6651   -2.2208 C.3       1 <0>        -0.3069
     15 S1          4.7561   -0.9538   -1.7155 S.3       1 <0>         0.2737
     16 C13         4.6593   -0.1508   -3.2808 C.2       1 <0>         0.0185
     17 N2          4.8360    1.1982   -3.3509 N.am      1 <0>        -0.2786
     18 H1          5.0182    1.7215   -2.5185 H         1 <0>         0.2560
     19 C14         4.7657    1.8296   -4.5413 C.2       1 <0>         0.3477
     20 O2          4.9236    3.0382   -4.6132 O.2       1 <0>        -0.3794
     21 C15         4.5089    1.0766   -5.6911 C.2       1 <0>        -0.4115
     22 C16         4.3359   -0.2948   -5.5660 C.2       1 <0>         0.2286
     23 N3          4.4171   -0.8668   -4.3596 N.2       1 <0>        -0.3105
     24 N4          4.0816   -1.0658   -6.6826 N.pl3     1 <0>        -0.3824
     25 C17         6.9671   -4.1488   -0.1054 C.3       1 <0>        -0.0641
     26 C18         4.8532   -7.9137   -2.0060 C.3       1 <0>        -0.1910
     27 H2          2.9750   -7.2757   -0.0756 H         1 <0>         0.0834
     28 H3          3.8121   -8.7860    0.3567 H         1 <0>         0.0818
     29 H4          4.0895   -7.3099    1.3119 H         1 <0>         0.0916
     30 H5          6.2615   -9.9151    0.1077 H         1 <0>         0.1331
     31 H6          8.5220  -10.1448    1.0650 H         1 <0>         0.1353
     32 H7          9.8969   -8.1417    1.4600 H         1 <0>         0.1355
     33 H8          9.0274   -5.9141    0.9042 H         1 <0>         0.1337
     34 H9          3.3815   -5.3036   -1.6264 H         1 <0>         0.1634
     35 H10         3.5544   -2.7298   -2.6559 H         1 <0>         0.1314
     36 H11         5.2217   -2.9773   -2.9272 H         1 <0>         0.1400
     37 H12         4.4507    1.5525   -6.6589 H         1 <0>         0.1639
     38 H13         4.0234   -0.6492   -7.5566 H         1 <0>         0.2370
     39 H14         3.9610   -2.0241   -6.5931 H         1 <0>         0.2271
     40 H15         6.7290   -3.7374    0.8755 H         1 <0>         0.1086
     41 H16         8.0488   -4.1675   -0.2387 H         1 <0>         0.0848
     42 H17         6.5163   -3.5274   -0.8791 H         1 <0>         0.0954
     43 H18         5.7106   -7.6728   -2.6345 H         1 <0>         0.0858
     44 H19         4.7514   -8.9962   -1.9298 H         1 <0>         0.0838
     45 H20         3.9495   -7.4939   -2.4479 H         1 <0>         0.0806
@<TRIPOS>BOND
     1    1    2 1
     2    1   27 1
     3    1   28 1
     4    1   29 1
     5    2   10 1
     6    2    3 1
     7    2   26 1
     8    3    8 ar
     9    3    4 ar
    10    4    5 ar
    11    4   30 1
    12    5    6 ar
    13    5   31 1
    14    6    7 ar
    15    6   32 1
    16    7    8 ar
    17    7   33 1
    18    8    9 1
    19    9   10 1
    20    9   25 1
    21   10   11 2
    22   11   12 1
    23   11   34 1
    24   12   13 2
    25   12   14 1
    26   14   15 1
    27   14   35 1
    28   14   36 1
    29   15   16 1
    30   16   23 2
    31   16   17 1
    32   17   18 1
    33   17   19 am
    34   19   20 2
    35   19   21 1
    36   21   22 2
    37   21   37 1
    38   22   23 1
    39   22   24 1
    40   24   38 1
    41   24   39 1
    42   25   40 1
    43   25   41 1
    44   25   42 1
    45   26   43 1
    46   26   44 1
    47   26   45 1
@<TRIPOS>MOLECULE
ZINC04467883
   45    47     0     0     0
SMALL
USER_CHARGES

@<TRIPOS>ATOM
      1 C1          3.8983   -7.7001    0.3122 C.3       1 <0>        -0.1882
      2 C2          5.0589   -7.3211   -0.6098 C.3       1 <0>        -0.0020
      3 C3          6.3739   -7.7887   -0.0296 C.ar      1 <0>        -0.1324
      4 C4          6.8640   -9.0372    0.2836 C.ar      1 <0>        -0.0732
      5 C5          8.1322   -9.1662    0.8219 C.ar      1 <0>        -0.1536
      6 C6          8.9036   -8.0398    1.0437 C.ar      1 <0>        -0.0923
      7 C7          8.4157   -6.7882    0.7313 C.ar      1 <0>        -0.1534
      8 C8          7.1388   -6.6500    0.1885 C.ar      1 <0>         0.0648
      9 N1          6.4366   -5.5113   -0.2031 N.pl3     1 <0>        -0.2139
     10 C9          5.2033   -5.8162   -0.6889 C.2       1 <0>         0.1468
     11 C10         4.2780   -4.9395   -1.1503 C.2       1 <0>        -0.3926
     12 C11         4.4872   -3.5605   -1.0091 C.2       1 <0>         0.3063
     13 O1          4.6980   -3.0872    0.0903 O.2       1 <0>        -0.2868
     14 C12         4.4508   -2.6649   -2.2206 C.3       1 <0>        -0.3770
     15 S1          4.7541   -0.9535   -1.7152 S.3       1 <0>         0.3504
     16 C13         4.6581   -0.1506   -3.2806 C.2       1 <0>        -0.0340
     17 N2          4.8347    1.1984   -3.3507 N.2       1 <0>        -0.2462
     18 H1          4.2916   -1.8553   -4.2752 H         1 <0>         0.2359
     19 C14         4.7657    1.8296   -4.5413 C.2       1 <0>         0.3154
     20 O2          4.9236    3.0382   -4.6132 O.2       1 <0>        -0.3356
     21 C15         4.5098    1.0765   -5.6912 C.2       1 <0>        -0.3805
     22 C16         4.3368   -0.2949   -5.5661 C.2       1 <0>         0.1977
     23 N3          4.4169   -0.8668   -4.3596 N.pl3     1 <0>        -0.2451
     24 N4          4.0830   -1.0660   -6.6828 N.pl3     1 <0>        -0.4160
     25 C17         6.9643   -4.1483   -0.1037 C.3       1 <0>        -0.0650
     26 C18         4.8517   -7.9134   -2.0052 C.3       1 <0>        -0.1908
     27 H2          2.9724   -7.2754   -0.0759 H         1 <0>         0.0831
     28 H3          3.8093   -8.7856    0.3570 H         1 <0>         0.0830
     29 H4          4.0861   -7.3094    1.3122 H         1 <0>         0.0932
     30 H5          6.2589   -9.9146    0.1094 H         1 <0>         0.1336
     31 H6          8.5189  -10.1441    1.0679 H         1 <0>         0.1365
     32 H7          9.8935   -8.1409    1.4635 H         1 <0>         0.1370
     33 H8          9.0242   -5.9134    0.9071 H         1 <0>         0.1352
     34 H9          3.3796   -5.3034   -1.6266 H         1 <0>         0.1613
     35 H10         3.5530   -2.7296   -2.6561 H         1 <0>         0.1124
     36 H11         5.2204   -2.9771   -2.9265 H         1 <0>         0.1168
     37 H12         4.4477    1.5529   -6.6585 H         1 <0>         0.1631
     38 H13         4.0251   -0.6494   -7.5568 H         1 <0>         0.2510
     39 H14         3.9624   -2.0243   -6.5933 H         1 <0>         0.2138
     40 H15         6.7257   -3.7368    0.8770 H         1 <0>         0.1123
     41 H16         8.0461   -4.1670   -0.2364 H         1 <0>         0.0874
     42 H17         6.5139   -3.5270   -0.8777 H         1 <0>         0.0927
     43 H18         5.7094   -7.6725   -2.6333 H         1 <0>         0.0845
     44 H19         4.7499   -8.9959   -1.9290 H         1 <0>         0.0858
     45 H20         3.9482   -7.4937   -2.4476 H         1 <0>         0.0786
@<TRIPOS>BOND
     1    1    2 1
     2    1   27 1
     3    1   28 1
     4    1   29 1
     5    2   10 1
     6    2    3 1
     7    2   26 1
     8    3    8 ar
     9    3    4 ar
    10    4    5 ar
    11    4   30 1
    12    5    6 ar
    13    5   31 1
    14    6    7 ar
    15    6   32 1
    16    7    8 ar
    17    7   33 1
    18    8    9 1
    19    9   10 1
    20    9   25 1
    21   10   11 2
    22   11   12 1
    23   11   34 1
    24   12   13 2
    25   12   14 1
    26   14   15 1
    27   14   35 1
    28   14   36 1
    29   15   16 1
    30   16   23 1
    31   16   17 2
    32   17   19 1
    33   18   23 1
    34   19   20 2
    35   19   21 1
    36   21   37 1
    37   21   22 2
    38   22   24 1
    39   22   23 1
    40   24   38 1
    41   24   39 1
    42   25   40 1
    43   25   41 1
    44   25   42 1
    45   26   43 1
    46   26   44 1
    47   26   45 1
@<TRIPOS>MOLECULE
ZINC04467883
   45    47     0     0     0
SMALL
USER_CHARGES

@<TRIPOS>ATOM
      1 C1          3.9011   -7.7005    0.3119 C.3       1 <0>        -0.1882
      2 C2          5.0612   -7.3215   -0.6107 C.3       1 <0>        -0.0005
      3 C3          6.3765   -7.7892   -0.0312 C.ar      1 <0>        -0.1343
      4 C4          6.8667   -9.0377    0.2816 C.ar      1 <0>        -0.0732
      5 C5          8.1352   -9.1668    0.8192 C.ar      1 <0>        -0.1591
      6 C6          8.9068   -8.0405    1.0407 C.ar      1 <0>        -0.0933
      7 C7          8.4188   -6.7888    0.7287 C.ar      1 <0>        -0.1580
      8 C8          7.1416   -6.6505    0.1866 C.ar      1 <0>         0.0710
      9 N1          6.4392   -5.5118   -0.2046 N.pl3     1 <0>        -0.2162
     10 C9          5.2057   -5.8166   -0.6897 C.2       1 <0>         0.1346
     11 C10         4.2802   -4.9398   -1.1506 C.2       1 <0>        -0.3745
     12 C11         4.4895   -3.5608   -1.0094 C.2       1 <0>         0.2946
     13 O1          4.7009   -3.0876    0.0899 O.2       1 <0>        -0.3036
     14 C12         4.4525   -2.6651   -2.2208 C.3       1 <0>        -0.3303
     15 S1          4.7561   -0.9538   -1.7155 S.3       1 <0>         0.3303
     16 C13         4.6593   -0.1508   -3.2808 C.ar      1 <0>        -0.0002
     17 N2          4.8347    1.1984   -3.3507 N.ar      1 <0>        -0.2838
     18 H1          4.8360    3.3297   -5.5657 H         1 <0>         0.2637
     19 C14         4.7644    1.8298   -4.5411 C.ar      1 <0>         0.2586
     20 O2          4.9218    3.0384   -4.6130 O.3       1 <0>        -0.1728
     21 C15         4.5117    1.0762   -5.6915 C.ar      1 <0>        -0.4858
     22 C16         4.3393   -0.2953   -5.5664 C.ar      1 <0>         0.2608
     23 N3          4.4188   -0.8670   -4.3598 N.ar      1 <0>        -0.3439
     24 N4          4.0867   -1.0665   -6.6833 N.pl3     1 <0>        -0.3855
     25 C17         6.9671   -4.1488   -0.1054 C.3       1 <0>        -0.0647
     26 C18         4.8532   -7.9137   -2.0060 C.3       1 <0>        -0.1908
     27 H2          2.9750   -7.2757   -0.0756 H         1 <0>         0.0831
     28 H3          3.8121   -8.7860    0.3567 H         1 <0>         0.0801
     29 H4          4.0895   -7.3099    1.3119 H         1 <0>         0.0916
     30 H5          6.2615   -9.9151    0.1077 H         1 <0>         0.1318
     31 H6          8.5220  -10.1448    1.0650 H         1 <0>         0.1338
     32 H7          9.8969   -8.1417    1.4600 H         1 <0>         0.1341
     33 H8          9.0274   -5.9141    0.9042 H         1 <0>         0.1337
     34 H9          3.3815   -5.3036   -1.6264 H         1 <0>         0.1611
     35 H10         3.5544   -2.7298   -2.6559 H         1 <0>         0.1269
     36 H11         5.2217   -2.9773   -2.9272 H         1 <0>         0.1342
     37 H12         4.4506    1.5525   -6.6589 H         1 <0>         0.1340
     38 H13         4.0298   -0.6501   -7.5574 H         1 <0>         0.2301
     39 H14         3.9661   -2.0248   -6.5938 H         1 <0>         0.2315
     40 H15         6.7290   -3.7374    0.8755 H         1 <0>         0.1088
     41 H16         8.0488   -4.1675   -0.2387 H         1 <0>         0.0828
     42 H17         6.5163   -3.5274   -0.8791 H         1 <0>         0.0998
     43 H18         5.7106   -7.6728   -2.6345 H         1 <0>         0.0854
     44 H19         4.7514   -8.9962   -1.9298 H         1 <0>         0.0820
     45 H20         3.9495   -7.4939   -2.4479 H         1 <0>         0.0803
@<TRIPOS>BOND
     1    1    2 1
     2    1   27 1
     3    1   28 1
     4    1   29 1
     5    2   10 1
     6    2    3 1
     7    2   26 1
     8    3    8 ar
     9    3    4 ar
    10    4    5 ar
    11    4   30 1
    12    5    6 ar
    13    5   31 1
    14    6    7 ar
    15    6   32 1
    16    7    8 ar
    17    7   33 1
    18    8    9 1
    19    9   10 1
    20    9   25 1
    21   10   11 2
    22   11   12 1
    23   11   34 1
    24   12   13 2
    25   12   14 1
    26   14   15 1
    27   14   35 1
    28   14   36 1
    29   15   16 1
    30   16   23 ar
    31   16   17 ar
    32   17   19 ar
    33   18   20 1
    34   19   20 1
    35   19   21 ar
    36   21   37 1
    37   21   22 ar
    38   22   24 1
    39   22   23 ar
    40   24   38 1
    41   24   39 1
    42   25   40 1
    43   25   41 1
    44   25   42 1
    45   26   43 1
    46   26   44 1
    47   26   45 1
@<TRIPOS>MOLECULE
ZINC04468422
   41    44     0     0     0
SMALL
USER_CHARGES

@<TRIPOS>ATOM
      1 C1         10.7345   -1.6930    2.0686 C.3       1 <0>        -0.1751
      2 C2         10.2017   -0.6617    1.1077 C.ar      1 <0>        -0.0493
      3 C3         11.0235   -0.1466    0.1216 C.ar      1 <0>        -0.1496
      4 C4         10.5389    0.8002   -0.7619 C.ar      1 <0>        -0.0990
      5 C5          9.2317    1.2349   -0.6623 C.ar      1 <0>        -0.1499
      6 C6          8.4036    0.7197    0.3268 C.ar      1 <0>         0.0837
      7 C7          8.8955   -0.2274    1.2165 C.ar      1 <0>        -0.1190
      8 C8          8.0027   -0.7845    2.2951 C.3       1 <0>        -0.1717
      9 N1          7.0806    1.1572    0.4303 N.pl3     1 <0>        -0.2335
     10 C9          6.6372    2.2043   -0.3507 C.2       1 <0>         0.1722
     11 C10         5.2572    2.1900   -0.8577 C.2       1 <0>         0.1116
     12 N2          4.6062    1.0525   -0.9953 N.2       1 <0>        -0.1740
     13 N3          5.1795   -0.0604   -0.6842 N.2       1 <0>        -0.1820
     14 C11         4.5303   -1.1947   -0.8213 C.2       1 <0>         0.0753
     15 C12         3.2034   -1.1953   -1.3100 C.2       1 <0>        -0.3540
     16 C13         2.3496   -2.2716   -1.5278 C.2       1 <0>        -0.1195
     17 C14         1.0983   -1.9848   -2.0145 C.2       1 <0>        -0.1975
     18 C15         0.7597   -0.6911   -2.2554 C.2       1 <0>        -0.3515
     19 S1          2.1876    0.1842   -1.8081 S.3       1 <0>         0.5070
     20 N4          4.6473    3.4050   -1.1978 N.pl3     1 <0>        -0.2470
     21 H1          3.6943    3.5637   -1.1110 H         1 <0>         0.2763
     22 C16         5.5375    4.3667   -1.6695 C.2       1 <0>        -0.0183
     23 C17         6.9857    4.2378   -1.3712 C.2       1 <0>        -0.0279
     24 N5          7.4623    3.2004   -0.6275 N.2       1 <0>        -0.1855
     25 N6          7.5993    5.2391   -1.9281 N.2       1 <0>         0.0348
     26 O1          6.6224    6.0364   -2.5823 O.3       1 <0>        -0.0758
     27 N7          5.3555    5.4273   -2.3759 N.2       1 <0>        -0.0277
     28 H2         11.1600   -1.1933    2.9389 H         1 <0>         0.0878
     29 H3          9.9226   -2.3473    2.3863 H         1 <0>         0.0809
     30 H4         11.5061   -2.2845    1.5758 H         1 <0>         0.0833
     31 H5         12.0460   -0.4850    0.0413 H         1 <0>         0.1309
     32 H6         11.1832    1.2001   -1.5309 H         1 <0>         0.1354
     33 H7          8.8539    1.9747   -1.3525 H         1 <0>         0.1630
     34 H8          7.4893   -1.6700    1.9204 H         1 <0>         0.0823
     35 H9          8.6053   -1.0538    3.1625 H         1 <0>         0.0908
     36 H10         7.2676   -0.0328    2.5826 H         1 <0>         0.0698
     37 H11         6.4739    0.7246    1.0514 H         1 <0>         0.2642
     38 H12         5.0103   -2.1265   -0.5609 H         1 <0>         0.1799
     39 H13         2.6568   -3.2865   -1.3231 H         1 <0>         0.1461
     40 H14         0.3910   -2.7787   -2.2041 H         1 <0>         0.1442
     41 H15        -0.1725   -0.3023   -2.6378 H         1 <0>         0.1882
@<TRIPOS>BOND
     1    1    2 1
     2    1   28 1
     3    1   29 1
     4    1   30 1
     5    2    7 ar
     6    2    3 ar
     7    3    4 ar
     8    3   31 1
     9    4    5 ar
    10    4   32 1
    11    5    6 ar
    12    5   33 1
    13    6    7 ar
    14    6    9 1
    15    7    8 1
    16    8   34 1
    17    8   35 1
    18    8   36 1
    19    9   10 1
    20    9   37 1
    21   10   24 2
    22   10   11 1
    23   11   12 2
    24   11   20 1
    25   12   13 1
    26   13   14 2
    27   14   15 1
    28   14   38 1
    29   15   19 1
    30   15   16 2
    31   16   17 1
    32   16   39 1
    33   17   18 2
    34   17   40 1
    35   18   19 1
    36   18   41 1
    37   20   21 1
    38   20   22 1
    39   22   27 2
    40   22   23 1
    41   23   24 1
    42   23   25 2
    43   25   26 1
    44   26   27 1
@<TRIPOS>MOLECULE
ZINC04468440
   42    45     0     0     0
SMALL
USER_CHARGES

@<TRIPOS>ATOM
      1 C1          0.5215   -0.1496   -1.4764 C.3       1 <0>        -0.0645
      2 O1         -0.4720    0.3470   -0.5774 O.3       1 <0>        -0.1953
      3 C2         -0.2326    1.5540    0.0018 C.ar      1 <0>         0.0951
      4 C3          0.9295    2.2401   -0.2898 C.ar      1 <0>        -0.2163
      5 C4          1.1750    3.4846    0.3076 C.ar      1 <0>        -0.0201
      6 C5          0.2382    4.0266    1.1989 C.ar      1 <0>        -0.1844
      7 C6         -0.9212    3.3334    1.4846 C.ar      1 <0>         0.1053
      8 C7         -1.1634    2.0991    0.8843 C.ar      1 <0>         0.0358
      9 O2         -2.3079    1.4228    1.1643 O.3       1 <0>        -0.2582
     10 O3         -1.8305    3.8581    2.3490 O.3       1 <0>        -0.1949
     11 C8         -1.5209    5.1293    2.9236 C.3       1 <0>        -0.0694
     12 C9          2.4065    4.2160    0.0017 C.2       1 <0>         0.0205
     13 C10         2.3856    5.5892   -0.0951 C.2       1 <0>        -0.2631
     14 C11         3.6380    6.3882   -0.2102 C.2       1 <0>         0.1678
     15 N1          4.7055    5.9621   -0.8303 N.2       1 <0>        -0.2928
     16 N2          3.5610    7.6525    0.4117 N.pl3     1 <0>        -0.1917
     17 C12         4.6566    8.3810    0.8228 C.ar      1 <0>         0.0310
     18 C13         5.9978    7.9539    0.7636 C.ar      1 <0>        -0.1035
     19 C14         6.9716    8.8259    1.2093 C.ar      1 <0>        -0.1073
     20 C15         6.6882   10.0853    1.7021 C.ar      1 <0>        -0.1332
     21 C16         5.3744   10.5384    1.7766 C.ar      1 <0>        -0.0605
     22 C17         4.4038    9.6695    1.3389 C.ar      1 <0>        -0.2687
     23 S1          2.6427    9.8044    1.2726 S.3       1 <0>         0.3946
     24 C18         2.3057    8.1959    0.5986 C.2       1 <0>         0.0524
     25 N3          1.1504    7.6350    0.3394 N.2       1 <0>        -0.2683
     26 C19         1.1149    6.3556   -0.0842 C.2       1 <0>         0.3185
     27 O4          0.0691    5.8429   -0.4473 O.2       1 <0>        -0.2627
     28 H1          1.4676   -0.2614   -0.9467 H         1 <0>         0.0630
     29 H2          0.2071   -1.1175   -1.8668 H         1 <0>         0.1118
     30 H3          0.6478    0.5513   -2.3016 H         1 <0>         0.0715
     31 H4          1.6482    1.8190   -0.9772 H         1 <0>         0.1379
     32 H5          0.4234    4.9847    1.6616 H         1 <0>         0.1473
     33 H6         -2.2359    0.8237    1.9200 H         1 <0>         0.2224
     34 H7         -2.3269    5.4318    3.5922 H         1 <0>         0.1106
     35 H8         -0.5901    5.0568    3.4861 H         1 <0>         0.0608
     36 H9         -1.4097    5.8690    2.1308 H         1 <0>         0.0892
     37 H10         3.3310    3.6781   -0.1478 H         1 <0>         0.1355
     38 H11         4.7081    5.0851   -1.2447 H         1 <0>         0.1793
     39 H12         6.2560    6.9771    0.3819 H         1 <0>         0.1750
     40 H13         8.0032    8.5087    1.1706 H         1 <0>         0.1372
     41 H14         7.4939   10.7243    2.0322 H         1 <0>         0.1399
     42 H15         5.1310   11.5191    2.1579 H         1 <0>         0.1521
@<TRIPOS>BOND
     1    1    2 1
     2    1   28 1
     3    1   29 1
     4    1   30 1
     5    2    3 1
     6    3    8 ar
     7    3    4 ar
     8    4    5 ar
     9    4   31 1
    10    5    6 ar
    11    5   12 1
    12    6    7 ar
    13    6   32 1
    14    7    8 ar
    15    7   10 1
    16    8    9 1
    17    9   33 1
    18   10   11 1
    19   11   34 1
    20   11   35 1
    21   11   36 1
    22   12   13 2
    23   12   37 1
    24   13   26 1
    25   13   14 1
    26   14   15 2
    27   14   16 1
    28   15   38 1
    29   16   24 1
    30   16   17 1
    31   17   22 ar
    32   17   18 ar
    33   18   19 ar
    34   18   39 1
    35   19   20 ar
    36   19   40 1
    37   20   21 ar
    38   20   41 1
    39   21   22 ar
    40   21   42 1
    41   22   23 1
    42   23   24 1
    43   24   25 2
    44   25   26 1
    45   26   27 2
@<TRIPOS>MOLECULE
ZINC04468463
   41    44     0     0     0
SMALL
USER_CHARGES

@<TRIPOS>ATOM
      1 C1          6.7857   -2.1715   -1.3405 C.3       1 <0>        -0.1801
      2 C2          6.3261   -0.7363   -1.3275 C.ar      1 <0>        -0.0538
      3 C3          5.0665   -0.4530   -0.8357 C.ar      1 <0>        -0.1019
      4 C4          4.6511    0.8928   -0.8303 C.ar      1 <0>         0.0277
      5 C5          5.5517    1.8563   -1.3323 C.ar      1 <0>        -0.2700
      6 C6          6.8050    1.5732   -1.8190 C.ar      1 <0>        -0.0577
      7 C7          7.1839    0.2338   -1.8081 C.ar      1 <0>        -0.0800
      8 C8          8.5431   -0.1616   -2.3252 C.3       1 <0>        -0.1752
      9 S1          4.6669    3.3773   -1.1655 S.3       1 <0>         0.3937
     10 C9          3.1732    2.7095   -0.4738 C.2       1 <0>         0.0524
     11 N1          2.0634    3.3292   -0.1553 N.2       1 <0>        -0.2651
     12 C10         0.9930    2.6107    0.2315 C.2       1 <0>         0.3195
     13 O1         -0.0132    3.1613    0.6473 O.2       1 <0>        -0.2643
     14 C11         1.0739    1.1316    0.1425 C.2       1 <0>        -0.2591
     15 C12        -0.0506    0.3497    0.0029 C.2       1 <0>         0.0160
     16 C13        -1.3507    0.9752   -0.2502 C.ar      1 <0>        -0.0762
     17 C14        -1.4530    2.0461   -1.1495 C.ar      1 <0>        -0.0663
     18 C15        -2.6764    2.6311   -1.3851 C.ar      1 <0>        -0.1410
     19 C16        -3.8116    2.1633   -0.7346 C.ar      1 <0>         0.0693
     20 C17        -3.7190    1.0979    0.1616 C.ar      1 <0>         0.0390
     21 C18        -2.4982    0.5014    0.4017 C.ar      1 <0>        -0.1120
     22 O2         -4.8335    0.6439    0.7951 O.3       1 <0>        -0.2732
     23 O3         -5.0153    2.7448   -0.9721 O.3       1 <0>        -0.2746
     24 C19         2.4398    0.5398    0.2063 C.2       1 <0>         0.1683
     25 N2          2.6926   -0.6218    0.7469 N.2       1 <0>        -0.2929
     26 N3          3.4359    1.3579   -0.3748 N.pl3     1 <0>        -0.1914
     27 H1          7.3796   -2.3709   -0.4485 H         1 <0>         0.0929
     28 H2          5.9178   -2.8308   -1.3540 H         1 <0>         0.0852
     29 H3          7.3921   -2.3508   -2.2283 H         1 <0>         0.0873
     30 H4          4.4218   -1.2374   -0.4677 H         1 <0>         0.1765
     31 H5          7.4604    2.3476   -2.1894 H         1 <0>         0.1524
     32 H6          9.2409   -0.2382   -1.4913 H         1 <0>         0.0912
     33 H7          8.4735   -1.1249   -2.8304 H         1 <0>         0.0888
     34 H8          8.8980    0.5924   -3.0277 H         1 <0>         0.0828
     35 H9          0.0265   -0.7251    0.0755 H         1 <0>         0.1350
     36 H10        -0.5725    2.4119   -1.6566 H         1 <0>         0.1424
     37 H11        -2.7542    3.4559   -2.0780 H         1 <0>         0.1496
     38 H12        -2.4261   -0.3261    1.0921 H         1 <0>         0.1428
     39 H13        -5.2999   -0.0557    0.3175 H         1 <0>         0.2196
     40 H14        -5.5083    2.3447   -1.7015 H         1 <0>         0.2237
     41 H15         1.9721   -1.1443    1.1327 H         1 <0>         0.1790
@<TRIPOS>BOND
     1    1    2 1
     2    1   27 1
     3    1   28 1
     4    1   29 1
     5    2    7 ar
     6    2    3 ar
     7    3    4 ar
     8    3   30 1
     9    4   26 1
    10    4    5 ar
    11    5    6 ar
    12    5    9 1
    13    6    7 ar
    14    6   31 1
    15    7    8 1
    16    8   32 1
    17    8   33 1
    18    8   34 1
    19    9   10 1
    20   10   26 1
    21   10   11 2
    22   11   12 1
    23   12   13 2
    24   12   14 1
    25   14   15 2
    26   14   24 1
    27   15   16 1
    28   15   35 1
    29   16   21 ar
    30   16   17 ar
    31   17   18 ar
    32   17   36 1
    33   18   19 ar
    34   18   37 1
    35   19   20 ar
    36   19   23 1
    37   20   21 ar
    38   20   22 1
    39   21   38 1
    40   22   39 1
    41   23   40 1
    42   24   25 2
    43   24   26 1
    44   25   41 1
@<TRIPOS>MOLECULE
ZINC04468620
   42    45     0     0     0
SMALL
USER_CHARGES

@<TRIPOS>ATOM
      1 C1          9.6724   -2.6444   -2.9193 C.3       1 <0>        -0.2116
      2 C2          8.3317   -2.1912   -2.3378 C.3       1 <0>        -0.0173
      3 O1          8.1892   -0.7801   -2.5128 O.3       1 <0>        -0.2087
      4 C3          7.0445   -0.2130   -2.0477 C.ar      1 <0>         0.0986
      5 C4          6.0837   -1.0040   -1.4371 C.ar      1 <0>        -0.2042
      6 C5          4.8994   -0.4995   -0.9381 C.ar      1 <0>        -0.0625
      7 C6          4.6685    0.8848   -1.0635 C.ar      1 <0>        -0.0121
      8 C7          5.6641    1.6601   -1.6945 C.ar      1 <0>        -0.2349
      9 C8          6.8458    1.1617   -2.1881 C.ar      1 <0>        -0.0955
     10 S1          4.9938    3.2954   -1.6709 S.3       1 <0>         0.4050
     11 C9          3.4611    2.9136   -0.8583 C.2       1 <0>         0.0518
     12 N1          2.4583    3.7083   -0.5749 N.2       1 <0>        -0.2673
     13 C10         1.3249    3.1873   -0.0696 C.2       1 <0>         0.3207
     14 O2          0.4201    3.9106    0.3132 O.2       1 <0>        -0.2677
     15 C11         1.2093    1.7101    0.0126 C.2       1 <0>        -0.2634
     16 C12        -0.0126    1.0758    0.0080 C.2       1 <0>         0.0195
     17 C13        -1.2324    1.8382   -0.2678 C.ar      1 <0>        -0.0820
     18 C14        -1.2135    2.8811   -1.2048 C.ar      1 <0>        -0.0580
     19 C15        -2.3618    3.5951   -1.4618 C.ar      1 <0>        -0.1438
     20 C16        -3.5412    3.2852   -0.7955 C.ar      1 <0>         0.0719
     21 C17        -3.5692    2.2486    0.1381 C.ar      1 <0>         0.0352
     22 C18        -2.4247    1.5237    0.3999 C.ar      1 <0>        -0.1105
     23 O3         -4.7262    1.9498    0.7872 O.3       1 <0>        -0.2732
     24 O4         -4.6703    3.9932   -1.0542 O.3       1 <0>        -0.2748
     25 C19         2.4889    0.9510    0.0943 C.2       1 <0>         0.1699
     26 N2          2.6175   -0.1668    0.7574 N.2       1 <0>        -0.2961
     27 N3          3.5503    1.5581   -0.6152 N.pl3     1 <0>        -0.1887
     28 H1          9.7072   -2.4048   -3.9820 H         1 <0>         0.0898
     29 H2         10.4841   -2.1306   -2.4042 H         1 <0>         0.0906
     30 H3          9.7811   -3.7207   -2.7858 H         1 <0>         0.0893
     31 H4          8.2970   -2.4309   -1.2751 H         1 <0>         0.0773
     32 H5          7.5200   -2.7050   -2.8528 H         1 <0>         0.0754
     33 H6          6.2700   -2.0640   -1.3479 H         1 <0>         0.1421
     34 H7          4.1730   -1.1452   -0.4671 H         1 <0>         0.1761
     35 H8          7.5800    1.7983   -2.6594 H         1 <0>         0.1649
     36 H9         -0.0712    0.0152    0.2033 H         1 <0>         0.1345
     37 H10        -0.2984    3.1243   -1.7243 H         1 <0>         0.1446
     38 H11        -2.3463    4.3982   -2.1837 H         1 <0>         0.1502
     39 H12        -2.4463    0.7186    1.1194 H         1 <0>         0.1423
     40 H13        -5.2725    1.2925    0.3348 H         1 <0>         0.2193
     41 H14        -5.2089    3.6273   -1.7691 H         1 <0>         0.2241
     42 H15         1.8568   -0.5416    1.2284 H         1 <0>         0.1791
@<TRIPOS>BOND
     1    1    2 1
     2    1   28 1
     3    1   29 1
     4    1   30 1
     5    2    3 1
     6    2   31 1
     7    2   32 1
     8    3    4 1
     9    4    9 ar
    10    4    5 ar
    11    5    6 ar
    12    5   33 1
    13    6    7 ar
    14    6   34 1
    15    7   27 1
    16    7    8 ar
    17    8    9 ar
    18    8   10 1
    19    9   35 1
    20   10   11 1
    21   11   27 1
    22   11   12 2
    23   12   13 1
    24   13   14 2
    25   13   15 1
    26   15   16 2
    27   15   25 1
    28   16   17 1
    29   16   36 1
    30   17   22 ar
    31   17   18 ar
    32   18   19 ar
    33   18   37 1
    34   19   20 ar
    35   19   38 1
    36   20   21 ar
    37   20   24 1
    38   21   22 ar
    39   21   23 1
    40   22   39 1
    41   23   40 1
    42   24   41 1
    43   25   26 2
    44   25   27 1
    45   26   42 1
@<TRIPOS>MOLECULE
ZINC04469667
   40    42     0     0     0
SMALL
USER_CHARGES

@<TRIPOS>ATOM
      1 C1          1.0166    1.1600   -3.4885 C.3       1 <0>        -0.0649
      2 O1         -0.1809    0.3813   -3.5273 O.3       1 <0>        -0.2010
      3 C2         -0.1083   -0.8875   -3.0432 C.ar      1 <0>         0.0574
      4 C3          1.0884   -1.3708   -2.5490 C.ar      1 <0>        -0.1871
      5 C4          1.1581   -2.6747   -2.0475 C.ar      1 <0>        -0.0924
      6 C5          0.0186   -3.4857   -2.0588 C.ar      1 <0>        -0.1181
      7 C6         -1.1697   -2.9970   -2.5586 C.ar      1 <0>        -0.1339
      8 C7         -1.2390   -1.7017   -3.0510 C.ar      1 <0>         0.0638
      9 O2         -2.4136   -1.2256   -3.5429 O.3       1 <0>        -0.2766
     10 C8          2.4275   -3.1933   -1.5144 C.2       1 <0>         0.0027
     11 N1          2.4604   -4.3569   -0.9233 N.2       1 <0>        -0.1369
     12 N2          1.3603   -4.9705   -0.6452 N.2       1 <0>        -0.1580
     13 C9          1.3943   -6.1685   -0.1008 C.2       1 <0>         0.0416
     14 N3          0.3393   -6.9141    0.3853 N.am      1 <0>        -0.2264
     15 C10         0.5063   -8.1149    0.9126 C.2       1 <0>         0.3084
     16 O3         -0.4236   -8.7666    1.3381 O.2       1 <0>        -0.2976
     17 C11         1.9367   -8.6279    0.9518 C.3       1 <0>        -0.2886
     18 S1          2.8158   -7.2148    0.1752 S.3       1 <0>         0.1379
     19 C12        -0.9554   -6.3788    0.3178 C.ar      1 <0>         0.0140
     20 C13        -1.3248   -5.3455    1.1683 C.ar      1 <0>        -0.0857
     21 C14        -2.5974   -4.8145    1.0968 C.ar      1 <0>        -0.1471
     22 C15        -3.5108   -5.3219    0.1842 C.ar      1 <0>         0.0860
     23 C16        -3.1441   -6.3585   -0.6617 C.ar      1 <0>        -0.1533
     24 C17        -1.8697   -6.8859   -0.5956 C.ar      1 <0>        -0.0915
     25 O4         -4.7656   -4.8027    0.1185 O.3       1 <0>        -0.2894
     26 H1          1.3522    1.2591   -2.4562 H         1 <0>         0.0684
     27 H2          1.7904    0.6661   -4.0763 H         1 <0>         0.0641
     28 H3          0.8207    2.1487   -3.9034 H         1 <0>         0.1097
     29 H4          1.9665   -0.7420   -2.5463 H         1 <0>         0.1366
     30 H5          0.0695   -4.4943   -1.6759 H         1 <0>         0.1881
     31 H6         -2.0489   -3.6242   -2.5672 H         1 <0>         0.1499
     32 H7         -2.5359   -1.3821   -4.4892 H         1 <0>         0.2257
     33 H8          3.3321   -2.6114   -1.6120 H         1 <0>         0.1698
     34 H9          2.2700   -8.7900    1.9769 H         1 <0>         0.1551
     35 H10         2.0477   -9.5336    0.3556 H         1 <0>         0.1536
     36 H11        -0.6153   -4.9537    1.8821 H         1 <0>         0.1459
     37 H12        -2.8833   -4.0072    1.7548 H         1 <0>         0.1490
     38 H13        -3.8555   -6.7529   -1.3722 H         1 <0>         0.1464
     39 H14        -1.5842   -7.6925   -1.2547 H         1 <0>         0.1424
     40 H15        -5.4030   -5.2395    0.6999 H         1 <0>         0.2319
@<TRIPOS>BOND
     1    1    2 1
     2    1   26 1
     3    1   27 1
     4    1   28 1
     5    2    3 1
     6    3    8 ar
     7    3    4 ar
     8    4    5 ar
     9    4   29 1
    10    5    6 ar
    11    5   10 1
    12    6    7 ar
    13    6   30 1
    14    7    8 ar
    15    7   31 1
    16    8    9 1
    17    9   32 1
    18   10   11 2
    19   10   33 1
    20   11   12 1
    21   12   13 2
    22   13   18 1
    23   13   14 1
    24   14   15 am
    25   14   19 1
    26   15   16 2
    27   15   17 1
    28   17   18 1
    29   17   34 1
    30   17   35 1
    31   19   24 ar
    32   19   20 ar
    33   20   21 ar
    34   20   36 1
    35   21   22 ar
    36   21   37 1
    37   22   23 ar
    38   22   25 1
    39   23   24 ar
    40   23   38 1
    41   24   39 1
    42   25   40 1
@<TRIPOS>MOLECULE
ZINC04469720
   41    43     0     0     0
SMALL
USER_CHARGES

@<TRIPOS>ATOM
      1 C1         -2.2964   -5.2002   -1.8654 C.3       1 <0>        -0.0693
      2 N1         -3.1055   -4.2305   -1.1229 N.pl3     1 <0>        -0.1257
      3 C2         -4.4304   -4.3661   -0.7735 C.2       1 <0>        -0.1747
      4 C3         -4.7755   -3.2524   -0.1054 C.2       1 <0>        -0.1441
      5 N2         -3.6995   -2.4507   -0.0353 N.2       1 <0>        -0.1901
      6 C4         -2.6903   -3.0244   -0.6481 C.2       1 <0>        -0.1901
      7 S1         -1.0712   -2.3508   -0.8201 S.3       1 <0>         0.2968
      8 C5         -1.2933   -0.7746    0.0414 C.3       1 <0>        -0.2353
      9 C6          0.0015   -0.0038    0.0204 C.2       1 <0>         0.2009
     10 N3         -0.0166    1.3487    0.0244 N.pl3     1 <0>        -0.3127
     11 H1         -0.8594    1.8286    0.0364 H         1 <0>         0.2566
     12 C7          1.1797    2.0372    0.0054 C.2       1 <0>         0.2241
     13 N4          1.1918    3.3601    0.0083 N.2       1 <0>        -0.2384
     14 C8          0.0165    4.0553   -0.0805 C.ar      1 <0>        -0.0163
     15 C9         -0.5420    4.3306   -1.3309 C.ar      1 <0>        -0.1236
     16 C10        -1.7302    5.0263   -1.4149 C.ar      1 <0>        -0.2091
     17 C11        -2.3644    5.4629   -0.2603 C.ar      1 <0>         0.0736
     18 C12        -1.8103    5.1972    0.9840 C.ar      1 <0>        -0.1469
     19 C13        -0.6257    4.4968    1.0787 C.ar      1 <0>        -0.1234
     20 O1         -3.5331    6.1530   -0.3485 O.3       1 <0>        -0.2143
     21 C14        -4.0480    6.3920   -1.6599 C.3       1 <0>        -0.0619
     22 N5          2.3302    1.3468   -0.0170 N.2       1 <0>        -0.3025
     23 C15         2.3063    0.0243   -0.0197 C.2       1 <0>         0.2726
     24 N6          1.1429   -0.6430   -0.0012 N.2       1 <0>        -0.3300
     25 N7          3.4889   -0.6751   -0.0422 N.pl3     1 <0>        -0.3519
     26 H2         -1.8168   -5.8847   -1.1657 H         1 <0>         0.0944
     27 H3         -2.9367   -5.7639   -2.5439 H         1 <0>         0.0975
     28 H4         -1.5337   -4.6735   -2.4390 H         1 <0>         0.1033
     29 H5         -5.0705   -5.2074   -0.9946 H         1 <0>         0.1765
     30 H6         -5.7501   -3.0400    0.3088 H         1 <0>         0.1800
     31 H7         -1.5872   -0.9632    1.0740 H         1 <0>         0.1546
     32 H8         -2.0697   -0.1943   -0.4571 H         1 <0>         0.1372
     33 H9         -0.0467    3.9954   -2.2302 H         1 <0>         0.1400
     34 H10        -2.1654    5.2352   -2.3810 H         1 <0>         0.1339
     35 H11        -2.3076    5.5390    1.8797 H         1 <0>         0.1428
     36 H12        -0.1957    4.2899    2.0475 H         1 <0>         0.1444
     37 H13        -4.9813    6.9505   -1.5876 H         1 <0>         0.1062
     38 H14        -3.3235    6.9682   -2.2353 H         1 <0>         0.0690
     39 H15        -4.2321    5.4396   -2.1571 H         1 <0>         0.0644
     40 H16         3.4787   -1.6450   -0.0446 H         1 <0>         0.2416
     41 H17         4.3338   -0.1989   -0.0556 H         1 <0>         0.2502
@<TRIPOS>BOND
     1    1    2 1
     2    1   26 1
     3    1   27 1
     4    1   28 1
     5    2    6 1
     6    2    3 1
     7    3    4 2
     8    3   29 1
     9    4    5 1
    10    4   30 1
    11    5    6 2
    12    6    7 1
    13    7    8 1
    14    8    9 1
    15    8   31 1
    16    8   32 1
    17    9   24 2
    18    9   10 1
    19   10   11 1
    20   10   12 1
    21   12   13 2
    22   12   22 1
    23   13   14 1
    24   14   19 ar
    25   14   15 ar
    26   15   16 ar
    27   15   33 1
    28   16   17 ar
    29   16   34 1
    30   17   18 ar
    31   17   20 1
    32   18   19 ar
    33   18   35 1
    34   19   36 1
    35   20   21 1
    36   21   37 1
    37   21   38 1
    38   21   39 1
    39   22   23 2
    40   23   24 1
    41   23   25 1
    42   25   40 1
    43   25   41 1
@<TRIPOS>MOLECULE
ZINC04469726
   40    42     0     0     0
SMALL
USER_CHARGES

@<TRIPOS>ATOM
      1 C1         -9.3291    6.5639    1.5176 C.3       1 <0>        -0.0686
      2 N1         -8.8385    5.3340    0.8907 N.pl3     1 <0>        -0.1575
      3 C2         -9.5625    4.2119    0.5958 C.2       1 <0>        -0.1283
      4 N2         -8.7465    3.3567    0.0475 N.2       1 <0>        -0.0807
      5 N3         -7.5661    3.8595   -0.0283 N.2       1 <0>        -0.1126
      6 C3         -7.5635    5.0701    0.4795 C.2       1 <0>        -0.2357
      7 S1         -6.1785    6.1526    0.6005 S.3       1 <0>         0.3131
      8 C4         -4.8974    5.1074   -0.1361 C.3       1 <0>        -0.2391
      9 C5         -3.5851    5.8483   -0.1394 C.2       1 <0>         0.2002
     10 N4         -2.4217    5.1634   -0.0552 N.pl3     1 <0>        -0.3094
     11 H1         -2.4250    4.1955    0.0079 H         1 <0>         0.2559
     12 C6         -1.2298    5.8599   -0.0550 C.2       1 <0>         0.2274
     13 N5         -0.0773    5.2162    0.0308 N.2       1 <0>        -0.2223
     14 C7         -0.0550    3.8483    0.0163 C.ar      1 <0>        -0.0050
     15 C8         -0.0504    3.1596   -1.1977 C.ar      1 <0>        -0.1303
     16 C9         -0.0235    1.7794   -1.2055 C.ar      1 <0>        -0.1539
     17 C10        -0.0112    1.0760   -0.0144 C.ar      1 <0>        -0.1117
     18 C11        -0.0151    1.7487    1.1952 C.ar      1 <0>        -0.2111
     19 C12        -0.0371    3.1314    1.2200 C.ar      1 <0>         0.0641
     20 O1         -0.0419    3.7927    2.4084 O.3       1 <0>        -0.1964
     21 C13        -0.0233    2.9958    3.5944 C.3       1 <0>        -0.0646
     22 N6         -1.2558    7.1984   -0.1487 N.2       1 <0>        -0.2978
     23 C14        -2.4138    7.8316   -0.2345 C.2       1 <0>         0.2717
     24 N7         -3.5711    7.1535   -0.2294 N.2       1 <0>        -0.3324
     25 N8         -2.4316    9.2024   -0.3297 N.pl3     1 <0>        -0.3528
     26 H2         -9.6700    7.2540    0.7459 H         1 <0>         0.0984
     27 H3        -10.1579    6.3261    2.1844 H         1 <0>         0.1005
     28 H4         -8.5243    7.0265    2.0889 H         1 <0>         0.1071
     29 H5        -10.6156    4.0622    0.7827 H         1 <0>         0.2124
     30 H6         -5.1764    4.8577   -1.1598 H         1 <0>         0.1547
     31 H7         -4.7962    4.1917    0.4465 H         1 <0>         0.1384
     32 H8         -0.0644    3.7056   -2.1294 H         1 <0>         0.1435
     33 H9         -0.0158    1.2467   -2.1450 H         1 <0>         0.1303
     34 H10         0.0060   -0.0037   -0.0284 H         1 <0>         0.1286
     35 H11        -0.0013    1.1931    2.1212 H         1 <0>         0.1343
     36 H12         0.8767    2.3810    3.6049 H         1 <0>         0.0699
     37 H13        -0.0294    3.6461    4.4692 H         1 <0>         0.1081
     38 H14        -0.9030    2.3525    3.6137 H         1 <0>         0.0605
     39 H15        -1.5985    9.6991   -0.3336 H         1 <0>         0.2505
     40 H16        -3.2773    9.6732   -0.3929 H         1 <0>         0.2407
@<TRIPOS>BOND
     1    1    2 1
     2    1   26 1
     3    1   27 1
     4    1   28 1
     5    2    6 1
     6    2    3 1
     7    3    4 2
     8    3   29 1
     9    4    5 1
    10    5    6 2
    11    6    7 1
    12    7    8 1
    13    8    9 1
    14    8   30 1
    15    8   31 1
    16    9   24 2
    17    9   10 1
    18   10   11 1
    19   10   12 1
    20   12   13 2
    21   12   22 1
    22   13   14 1
    23   14   19 ar
    24   14   15 ar
    25   15   16 ar
    26   15   32 1
    27   16   17 ar
    28   16   33 1
    29   17   18 ar
    30   17   34 1
    31   18   19 ar
    32   18   35 1
    33   19   20 1
    34   20   21 1
    35   21   36 1
    36   21   37 1
    37   21   38 1
    38   22   23 2
    39   23   24 1
    40   23   25 1
    41   25   39 1
    42   25   40 1
@<TRIPOS>MOLECULE
ZINC04469807
   43    45     0     0     0
SMALL
USER_CHARGES

@<TRIPOS>ATOM
      1 C1          9.4492   -5.0007   -0.0296 C.ar      1 <0>        -0.1327
      2 C2         10.4991   -5.8728   -0.2626 C.ar      1 <0>        -0.1018
      3 C3         10.2568   -7.2157   -0.4816 C.ar      1 <0>        -0.1463
      4 C4          8.9584   -7.6984   -0.4692 C.ar      1 <0>         0.0956
      5 C5          7.8925   -6.8194   -0.2338 C.ar      1 <0>        -0.1294
      6 C6          8.1503   -5.4635   -0.0191 C.ar      1 <0>        -0.1332
      7 C7          6.5071   -7.3218   -0.2189 C.2       1 <0>        -0.1039
      8 N1          5.5244   -6.5242   -0.5069 N.2       1 <0>         0.0161
      9 N2          5.7842   -5.2651   -1.0637 N.am      1 <0>        -0.3440
     10 C8          4.7750   -4.3935   -1.2593 C.2       1 <0>         0.3033
     11 O1          3.6416   -4.6992   -0.9532 O.2       1 <0>        -0.3278
     12 C9          5.0545   -3.0392   -1.8582 C.3       1 <0>        -0.0251
     13 N3          3.8029   -2.2856   -1.9668 N.am      1 <0>        -0.3790
     14 C10         3.8093   -1.0386   -2.4782 C.2       1 <0>         0.3557
     15 O2          4.8538   -0.5391   -2.8494 O.2       1 <0>        -0.3769
     16 C11         2.5482   -0.2793   -2.5876 C.ar      1 <0>        -0.1336
     17 C12         1.3469   -0.8512   -2.1618 C.ar      1 <0>        -0.1017
     18 C13         0.1717   -0.1406   -2.2659 C.ar      1 <0>        -0.1338
     19 C14         0.1749    1.1452   -2.7940 C.ar      1 <0>         0.0428
     20 C15         1.3694    1.7221   -3.2178 C.ar      1 <0>         0.0042
     21 C16         2.5526    1.0133   -3.1168 C.ar      1 <0>        -0.0607
     22 O3          1.3905    2.9836   -3.7293 O.3       1 <0>        -0.2011
     23 C17         0.1369    3.5238   -4.1612 C.3       1 <0>        -0.0521
     24 C18        -0.9078    3.2427   -3.0727 C.3       1 <0>        -0.0533
     25 O4         -0.9986    1.8246   -2.8951 O.3       1 <0>        -0.2019
     26 O5          8.7194   -9.0179   -0.6839 O.3       1 <0>        -0.2884
     27 H1          9.6482   -3.9529    0.1405 H         1 <0>         0.1388
     28 H2         11.5132   -5.5014   -0.2737 H         1 <0>         0.1387
     29 H3         11.0810   -7.8897   -0.6630 H         1 <0>         0.1469
     30 H4          7.3338   -4.7793    0.1589 H         1 <0>         0.1498
     31 H5          6.3095   -8.3535    0.0317 H         1 <0>         0.1967
     32 H6          6.6905   -5.0207   -1.3084 H         1 <0>         0.2294
     33 H7          5.4911   -3.1632   -2.8492 H         1 <0>         0.1139
     34 H8          5.7513   -2.4963   -1.2196 H         1 <0>         0.1106
     35 H9          2.9696   -2.6840   -1.6707 H         1 <0>         0.2493
     36 H10         1.3396   -1.8501   -1.7514 H         1 <0>         0.1397
     37 H11        -0.7561   -0.5844   -1.9363 H         1 <0>         0.1501
     38 H12         3.4793    1.4589   -3.4470 H         1 <0>         0.1707
     39 H13         0.2320    4.5994   -4.3104 H         1 <0>         0.1238
     40 H14        -0.1663    3.0487   -5.0941 H         1 <0>         0.0957
     41 H15        -0.6007    3.7126   -2.1384 H         1 <0>         0.0970
     42 H16        -1.8759    3.6366   -3.3821 H         1 <0>         0.1236
     43 H17         8.5099   -9.2353   -1.6026 H         1 <0>         0.2343
@<TRIPOS>BOND
     1    1    6 ar
     2    1    2 ar
     3    1   27 1
     4    2    3 ar
     5    2   28 1
     6    3    4 ar
     7    3   29 1
     8    4    5 ar
     9    4   26 1
    10    5    6 ar
    11    5    7 1
    12    6   30 1
    13    7    8 2
    14    7   31 1
    15    8    9 1
    16    9   10 am
    17    9   32 1
    18   10   11 2
    19   10   12 1
    20   12   13 1
    21   12   33 1
    22   12   34 1
    23   13   14 am
    24   13   35 1
    25   14   15 2
    26   14   16 1
    27   16   21 ar
    28   16   17 ar
    29   17   18 ar
    30   17   36 1
    31   18   19 ar
    32   18   37 1
    33   19   25 1
    34   19   20 ar
    35   20   21 ar
    36   20   22 1
    37   21   38 1
    38   22   23 1
    39   23   24 1
    40   23   39 1
    41   23   40 1
    42   24   25 1
    43   24   41 1
    44   24   42 1
    45   26   43 1
@<TRIPOS>MOLECULE
ZINC04469897
   43    45     0     0     0
SMALL
USER_CHARGES

@<TRIPOS>ATOM
      1 C1         -0.6871    6.6506   -1.8564 C.3       1 <0>        -0.1689
      2 C2         -1.6874    6.7734   -0.7360 C.ar      1 <0>        -0.0182
      3 C3         -2.8512    6.0229   -0.7728 C.ar      1 <0>         0.0108
      4 C4         -3.7732    6.1490    0.2803 C.ar      1 <0>        -0.0906
      5 C5         -3.4694    7.0379    1.3196 C.ar      1 <0>        -0.1157
      6 C6         -2.2838    7.7402    1.2746 C.ar      1 <0>        -0.0231
      7 N1         -1.4437    7.5936    0.2675 N.ar      1 <0>        -0.1514
      8 C7         -4.4222    7.2197    2.4730 C.3       1 <0>         0.0420
      9 O1         -3.8830    8.1735    3.3904 O.3       1 <0>        -0.3566
     10 C8         -5.0262    5.3733    0.2880 C.2       1 <0>        -0.1438
     11 N2         -4.9887    4.0788    0.1965 N.2       1 <0>         0.0514
     12 N3         -3.7581    3.4099    0.2242 N.am      1 <0>        -0.3217
     13 C9         -3.7096    2.0791    0.0169 C.2       1 <0>         0.3612
     14 O2         -4.7204    1.4733   -0.2839 O.2       1 <0>        -0.3061
     15 C10        -2.4305    1.3571    0.1548 C.ar      1 <0>        -0.1457
     16 C11        -1.2616    2.0651    0.3850 C.ar      1 <0>        -0.0710
     17 C12        -0.0485    1.3738    0.5104 C.ar      1 <0>        -0.0580
     18 C13         1.1579    2.0607    0.7397 C.ar      1 <0>        -0.1066
     19 C14         2.3186    1.3614    0.8622 C.ar      1 <0>        -0.1298
     20 C15         2.3321   -0.0291    0.7648 C.ar      1 <0>        -0.1116
     21 C16         1.1854   -0.7279    0.5436 C.ar      1 <0>        -0.1232
     22 C17        -0.0344   -0.0417    0.4109 C.ar      1 <0>        -0.0043
     23 C18        -1.2338   -0.7364    0.1826 C.ar      1 <0>        -0.1593
     24 C19        -2.4058   -0.0504    0.0575 C.ar      1 <0>         0.1277
     25 O3         -3.5606   -0.7286   -0.1635 O.3       1 <0>        -0.2684
     26 O4         -3.0971    5.1800   -1.8092 O.3       1 <0>        -0.2790
     27 H1         -0.9193    7.3800   -2.6324 H         1 <0>         0.0933
     28 H2          0.3152    6.8371   -1.4707 H         1 <0>         0.1033
     29 H3         -0.7335    5.6459   -2.2765 H         1 <0>         0.0981
     30 H4         -2.0409    8.4245    2.0740 H         1 <0>         0.1893
     31 H5         -5.3815    7.5775    2.0989 H         1 <0>         0.0747
     32 H6         -4.5633    6.2660    2.9815 H         1 <0>         0.0796
     33 H7         -4.4448    8.3406    4.1595 H         1 <0>         0.2214
     34 H8         -5.9755    5.8816    0.3698 H         1 <0>         0.1853
     35 H9         -2.9408    3.9046    0.3925 H         1 <0>         0.2219
     36 H10        -1.2839    3.1423    0.4595 H         1 <0>         0.1346
     37 H11         1.1627    3.1379    0.8174 H         1 <0>         0.1344
     38 H12         3.2431    1.8915    1.0375 H         1 <0>         0.1316
     39 H13         3.2671   -0.5601    0.8662 H         1 <0>         0.1312
     40 H14         1.2124   -1.8050    0.4699 H         1 <0>         0.1367
     41 H15        -1.2278   -1.8137    0.1064 H         1 <0>         0.1489
     42 H16        -4.0251   -0.9880    0.6440 H         1 <0>         0.2371
     43 H17        -3.5075    5.6062   -2.5740 H         1 <0>         0.2387
@<TRIPOS>BOND
     1    1    2 1
     2    1   27 1
     3    1   28 1
     4    1   29 1
     5    2    7 ar
     6    2    3 ar
     7    3    4 ar
     8    3   26 1
     9    4    5 ar
    10    4   10 1
    11    5    6 ar
    12    5    8 1
    13    6    7 ar
    14    6   30 1
    15    8    9 1
    16    8   31 1
    17    8   32 1
    18    9   33 1
    19   10   11 2
    20   10   34 1
    21   11   12 1
    22   12   13 am
    23   12   35 1
    24   13   14 2
    25   13   15 1
    26   15   24 ar
    27   15   16 ar
    28   16   17 ar
    29   16   36 1
    30   17   22 ar
    31   17   18 ar
    32   18   19 ar
    33   18   37 1
    34   19   20 ar
    35   19   38 1
    36   20   21 ar
    37   20   39 1
    38   21   22 ar
    39   21   40 1
    40   22   23 ar
    41   23   24 ar
    42   23   41 1
    43   24   25 1
    44   25   42 1
    45   26   43 1
@<TRIPOS>MOLECULE
ZINC04469934
   41    44     0     0     0
SMALL
USER_CHARGES

@<TRIPOS>ATOM
      1 C1         -5.9797   -0.8432    0.1954 C.3       1 <0>        -0.0653
      2 O1         -4.8289   -0.0284   -0.0367 O.3       1 <0>        -0.2061
      3 C2         -3.6265   -0.6541   -0.0602 C.ar      1 <0>         0.1382
      4 C3         -3.5602   -2.0182    0.1358 C.ar      1 <0>        -0.2519
      5 C4         -2.3543   -2.6959    0.1206 C.ar      1 <0>        -0.0441
      6 C5         -1.1581   -2.0131   -0.0958 C.ar      1 <0>        -0.1773
      7 C6         -1.1996   -0.5643   -0.3009 C.ar      1 <0>         0.0230
      8 C7         -2.4515    0.0946   -0.2844 C.ar      1 <0>        -0.0651
      9 C8         -2.4994    1.4830   -0.4862 C.ar      1 <0>        -0.0830
     10 C9         -1.3443    2.1731   -0.7002 C.ar      1 <0>        -0.1454
     11 C10        -0.1144    1.5213   -0.7219 C.ar      1 <0>        -0.0990
     12 C11        -0.0330    0.1736   -0.5293 C.ar      1 <0>        -0.1391
     13 C12         0.1174   -2.7316   -0.1116 C.2       1 <0>         0.0319
     14 N1          0.1523   -3.9952   -0.4490 N.2       1 <0>        -0.1355
     15 C13        -0.9577   -4.5934   -0.9658 C.ar      1 <0>         0.0642
     16 C14        -1.6033   -4.0451   -2.0826 C.ar      1 <0>        -0.1452
     17 C15        -2.7254   -4.6505   -2.6051 C.ar      1 <0>        -0.1020
     18 C16        -3.2357   -5.8093   -2.0386 C.ar      1 <0>        -0.0978
     19 C17        -2.6156   -6.3718   -0.9333 C.ar      1 <0>        -0.0885
     20 C18        -1.4668   -5.7649   -0.3865 C.ar      1 <0>        -0.1286
     21 C19        -0.8301   -6.3868    0.7879 C.2       1 <0>         0.3527
     22 O2          0.1618   -5.8872    1.2830 O.2       1 <0>        -0.3261
     23 N2         -1.3552   -7.5126    1.3095 N.am      1 <0>        -0.2839
     24 H1         -0.9171   -7.9280    2.1067 H         1 <0>         0.2658
     25 N3         -2.4921   -8.1165    0.7706 N.am      1 <0>        -0.2754
     26 H2         -2.8443   -8.9518    1.1928 H         1 <0>         0.2657
     27 C20        -3.1291   -7.6071   -0.3019 C.2       1 <0>         0.3528
     28 O3         -4.1169   -8.1580   -0.7470 O.2       1 <0>        -0.3554
     29 H3         -6.8736   -0.2195    0.1893 H         1 <0>         0.1121
     30 H4         -6.0564   -1.5957   -0.5893 H         1 <0>         0.0734
     31 H5         -5.8869   -1.3357    1.1633 H         1 <0>         0.0745
     32 H6         -4.4725   -2.5706    0.3056 H         1 <0>         0.1400
     33 H7         -2.3394   -3.7643    0.2776 H         1 <0>         0.1519
     34 H8         -3.4468    2.0013   -0.4716 H         1 <0>         0.1474
     35 H9         -1.3834    3.2413   -0.8550 H         1 <0>         0.1328
     36 H10         0.7873    2.0906   -0.8931 H         1 <0>         0.1318
     37 H11         0.9270   -0.3207   -0.5488 H         1 <0>         0.1360
     38 H12         1.0295   -2.2185    0.1552 H         1 <0>         0.1712
     39 H13        -1.2190   -3.1434   -2.5362 H         1 <0>         0.1508
     40 H14        -3.2159   -4.2152   -3.4632 H         1 <0>         0.1405
     41 H15        -4.1162   -6.2732   -2.4581 H         1 <0>         0.1581
@<TRIPOS>BOND
     1    1    2 1
     2    1   29 1
     3    1   30 1
     4    1   31 1
     5    2    3 1
     6    3    8 ar
     7    3    4 ar
     8    4    5 ar
     9    4   32 1
    10    5    6 ar
    11    5   33 1
    12    6    7 ar
    13    6   13 1
    14    7   12 ar
    15    7    8 ar
    16    8    9 ar
    17    9   10 ar
    18    9   34 1
    19   10   11 ar
    20   10   35 1
    21   11   12 ar
    22   11   36 1
    23   12   37 1
    24   13   14 2
    25   13   38 1
    26   14   15 1
    27   15   20 ar
    28   15   16 ar
    29   16   17 ar
    30   16   39 1
    31   17   18 ar
    32   17   40 1
    33   18   19 ar
    34   18   41 1
    35   19   27 1
    36   19   20 ar
    37   20   21 1
    38   21   22 2
    39   21   23 am
    40   23   24 1
    41   23   25 1
    42   25   26 1
    43   25   27 am
    44   27   28 2
@<TRIPOS>MOLECULE
ZINC04469951
   43    46     0     0     0
SMALL
USER_CHARGES

@<TRIPOS>ATOM
      1 C1          6.8498   11.4581    0.1018 C.3       1 <0>        -0.1701
      2 C2          5.3455   11.5476    0.1148 C.2       1 <0>         0.0731
      3 C3          4.7220   12.8029    0.1272 C.2       1 <0>        -0.2586
      4 C4          3.3668   12.8705    0.1381 C.2       1 <0>         0.1049
      5 N1          2.6476   11.7144    0.1382 N.pl3     1 <0>        -0.1065
      6 C5          3.2875   10.5045    0.1264 C.2       1 <0>         0.1083
      7 N2          4.6261   10.4496    0.1149 N.2       1 <0>        -0.1492
      8 N3          2.3557    9.5624    0.1353 N.2       1 <0>        -0.2194
      9 C6          1.1452   10.1251    0.1429 C.2       1 <0>        -0.0361
     10 N4          1.2739   11.4391    0.1487 N.2       1 <0>        -0.0771
     11 C7         -0.1402    9.3908    0.1501 C.2       1 <0>         0.4101
     12 O1         -1.1903   10.0035    0.1624 O.2       1 <0>        -0.2999
     13 N5         -0.1464    8.0430    0.1431 N.am      1 <0>        -0.3009
     14 N6         -1.3629    7.3481    0.1500 N.2       1 <0>         0.0330
     15 C8         -1.3704    6.0517    0.2481 C.2       1 <0>        -0.1170
     16 C9         -0.1159    5.3259    0.4902 C.ar      1 <0>        -0.1317
     17 C10         0.3176    4.2616   -0.4134 C.ar      1 <0>        -0.0056
     18 C11        -0.4421    3.8987   -1.5320 C.ar      1 <0>        -0.1195
     19 C12         0.0002    2.9044   -2.3531 C.ar      1 <0>        -0.1141
     20 C13         1.1929    2.2358   -2.0881 C.ar      1 <0>        -0.1277
     21 C14         1.9558    2.5634   -1.0088 C.ar      1 <0>        -0.1084
     22 C15         1.5335    3.5875   -0.1440 C.ar      1 <0>        -0.0473
     23 C16         2.2944    3.9530    0.9805 C.ar      1 <0>        -0.0860
     24 C17         1.8769    4.9454    1.8102 C.ar      1 <0>        -0.1531
     25 C18         0.6876    5.6377    1.5869 C.ar      1 <0>         0.0901
     26 O2          0.3089    6.6214    2.4425 O.3       1 <0>        -0.2866
     27 C19         2.6680   14.2056    0.1507 C.3       1 <0>        -0.1861
     28 H1          7.2038   11.4420   -0.9290 H         1 <0>         0.1052
     29 H2          7.2697   12.3221    0.6168 H         1 <0>         0.0911
     30 H3          7.1638   10.5453    0.6081 H         1 <0>         0.1117
     31 H4          5.3137   13.7064    0.1271 H         1 <0>         0.1631
     32 H5          0.6913    7.5542    0.1334 H         1 <0>         0.2446
     33 H6         -2.2987    5.5082    0.1516 H         1 <0>         0.1838
     34 H7         -1.3708    4.4068   -1.7459 H         1 <0>         0.1384
     35 H8         -0.5843    2.6285   -3.2183 H         1 <0>         0.1322
     36 H9          1.5199    1.4486   -2.7512 H         1 <0>         0.1310
     37 H10         2.8806    2.0391   -0.8185 H         1 <0>         0.1345
     38 H11         3.2217    3.4394    1.1871 H         1 <0>         0.1369
     39 H12         2.4826    5.2040    2.6662 H         1 <0>         0.1435
     40 H13        -0.1715    6.3037    3.2192 H         1 <0>         0.2362
     41 H14         2.5082   14.5223    1.1814 H         1 <0>         0.1103
     42 H15         3.2837   14.9428   -0.3645 H         1 <0>         0.0977
     43 H16         1.7068   14.1174   -0.3555 H         1 <0>         0.1212
@<TRIPOS>BOND
     1    1    2 1
     2    1   28 1
     3    1   29 1
     4    1   30 1
     5    2    7 2
     6    2    3 1
     7    3    4 2
     8    3   31 1
     9    4    5 1
    10    4   27 1
    11    5   10 1
    12    5    6 1
    13    6    7 1
    14    6    8 2
    15    8    9 1
    16    9   10 2
    17    9   11 1
    18   11   12 2
    19   11   13 am
    20   13   14 1
    21   13   32 1
    22   14   15 2
    23   15   16 1
    24   15   33 1
    25   16   25 ar
    26   16   17 ar
    27   17   22 ar
    28   17   18 ar
    29   18   19 ar
    30   18   34 1
    31   19   20 ar
    32   19   35 1
    33   20   21 ar
    34   20   36 1
    35   21   22 ar
    36   21   37 1
    37   22   23 ar
    38   23   24 ar
    39   23   38 1
    40   24   25 ar
    41   24   39 1
    42   25   26 1
    43   26   40 1
    44   27   41 1
    45   27   42 1
    46   27   43 1
@<TRIPOS>MOLECULE
ZINC04470039
   41    45     0     0     0
SMALL
USER_CHARGES

@<TRIPOS>ATOM
      1 C1          4.0472    7.7508    0.8885 C.3       1 <0>        -0.1697
      2 C2          3.6624    6.3054    0.7050 C.ar      1 <0>        -0.1071
      3 C3          4.6523    5.3395    0.5801 C.ar      1 <0>        -0.0818
      4 C4          4.3220    4.0137    0.4105 C.ar      1 <0>        -0.1488
      5 C5          2.9829    3.6326    0.3647 C.ar      1 <0>         0.0516
      6 C6          1.9831    4.6157    0.4918 C.ar      1 <0>        -0.1123
      7 C7          2.3432    5.9558    0.6624 C.ar      1 <0>        -0.0672
      8 C8          0.7014    3.9171    0.4051 C.2       1 <0>         0.0331
      9 C9          0.9883    2.5751    0.2335 C.2       1 <0>        -0.1438
     10 N1          2.3640    2.4129    0.2104 N.pl3     1 <0>        -0.1552
     11 H1          2.8230    1.5654    0.1011 H         1 <0>         0.2625
     12 C10        -0.0897    1.6611    0.1190 C.2       1 <0>         0.3741
     13 O1          0.1265    0.4720   -0.0334 O.2       1 <0>        -0.3239
     14 N2         -1.3556    2.1200    0.1745 N.am      1 <0>        -0.2570
     15 C11        -1.6127    3.4281    0.3473 C.2       1 <0>         0.4000
     16 O2         -2.7674    3.8067    0.3976 O.2       1 <0>        -0.3710
     17 N3         -0.6180    4.3288    0.4599 N.am      1 <0>        -0.2783
     18 H2         -0.8337    5.2974    0.5834 H         1 <0>         0.2745
     19 N4         -2.4212    1.2182    0.0560 N.2       1 <0>         0.0041
     20 C12        -3.2384    1.3075   -0.9487 C.2       1 <0>        -0.0092
     21 C13        -2.8950    2.1544   -2.1050 C.ar      1 <0>        -0.1024
     22 C14        -3.8443    2.3992   -3.1008 C.ar      1 <0>        -0.0861
     23 C15        -3.5222    3.1953   -4.1790 C.ar      1 <0>        -0.1177
     24 C16        -2.2535    3.7477   -4.2855 C.ar      1 <0>         0.0252
     25 C17        -1.2994    3.5031   -3.2979 C.ar      1 <0>         0.0037
     26 C18        -1.6173    2.7100   -2.2116 C.ar      1 <0>        -0.1184
     27 O3         -0.1470    4.1531   -3.6349 O.3       1 <0>        -0.2030
     28 C19        -0.5305    5.1274   -4.6231 C.3       1 <0>         0.1061
     29 O4         -1.6967    4.5501   -5.2389 O.3       1 <0>        -0.2048
     30 H3          4.1415    7.9695    1.9521 H         1 <0>         0.0868
     31 H4          4.9997    7.9389    0.3931 H         1 <0>         0.0822
     32 H5          3.2788    8.3895    0.4529 H         1 <0>         0.0808
     33 H6          5.6915    5.6312    0.6154 H         1 <0>         0.1374
     34 H7          5.0996    3.2704    0.3147 H         1 <0>         0.1359
     35 H8          1.5794    6.7130    0.7606 H         1 <0>         0.1305
     36 H9         -4.1700    0.7611   -0.9372 H         1 <0>         0.1897
     37 H10        -4.8314    1.9678   -3.0238 H         1 <0>         0.1437
     38 H11        -4.2584    3.3865   -4.9457 H         1 <0>         0.1480
     39 H12        -0.8793    2.5197   -1.4465 H         1 <0>         0.1646
     40 H13        -0.7784    6.0769   -4.1487 H         1 <0>         0.0897
     41 H14         0.2638    5.2610   -5.3575 H         1 <0>         0.1333
@<TRIPOS>BOND
     1    1    2 1
     2    1   30 1
     3    1   31 1
     4    1   32 1
     5    2    7 ar
     6    2    3 ar
     7    3    4 ar
     8    3   33 1
     9    4    5 ar
    10    4   34 1
    11    5   10 1
    12    5    6 ar
    13    6    7 ar
    14    6    8 1
    15    7   35 1
    16    8   17 1
    17    8    9 2
    18    9   10 1
    19    9   12 1
    20   10   11 1
    21   12   13 2
    22   12   14 am
    23   14   15 am
    24   14   19 1
    25   15   16 2
    26   15   17 am
    27   17   18 1
    28   19   20 2
    29   20   21 1
    30   20   36 1
    31   21   26 ar
    32   21   22 ar
    33   22   23 ar
    34   22   37 1
    35   23   24 ar
    36   23   38 1
    37   24   29 1
    38   24   25 ar
    39   25   26 ar
    40   25   27 1
    41   26   39 1
    42   27   28 1
    43   28   29 1
    44   28   40 1
    45   28   41 1
@<TRIPOS>MOLECULE
ZINC04470138
   42    44     0     0     0
SMALL
USER_CHARGES

@<TRIPOS>ATOM
      1 C1          5.3436    0.8149   -0.2351 C.3       1 <0>        -0.0552
      2 N1          4.0596    1.5053   -0.3797 N.am      1 <0>        -0.2366
      3 C2          3.9379    2.8288    0.0119 C.2       1 <0>         0.1005
      4 C3          2.7100    3.4614   -0.1359 C.2       1 <0>        -0.2402
      5 C4          1.6253    2.7397   -0.6790 C.2       1 <0>         0.3926
      6 O1          0.5402    3.2738   -0.8231 O.2       1 <0>        -0.3729
      7 N2          1.8061    1.4527   -1.0419 N.am      1 <0>        -0.2935
      8 C5          2.9998    0.8529   -0.8934 C.2       1 <0>         0.4114
      9 O2          3.1256   -0.3085   -1.2312 O.2       1 <0>        -0.3822
     10 C6          0.6846    0.6980   -1.6068 C.3       1 <0>        -0.0542
     11 N3          2.8810    4.7502    0.3284 N.pl3     1 <0>        -0.0832
     12 C7          4.1627    4.8572    0.7298 C.2       1 <0>        -0.0115
     13 N4          4.7810    3.7195    0.5403 N.2       1 <0>        -0.1920
     14 C8          1.8624    5.8021    0.3752 C.3       1 <0>        -0.0392
     15 C9          1.0577    5.6660    1.6421 C.2       1 <0>         0.2956
     16 O3          1.3102    4.7776    2.4286 O.2       1 <0>        -0.2928
     17 N5          0.0574    6.5314    1.9012 N.am      1 <0>        -0.3448
     18 N6         -0.6907    6.4049    3.0789 N.2       1 <0>         0.0210
     19 C10        -1.7210    7.1688    3.2786 C.2       1 <0>        -0.1036
     20 C11        -2.2584    7.9844    2.1750 C.ar      1 <0>        -0.1298
     21 C12        -2.0660    7.5872    0.8498 C.ar      1 <0>        -0.1335
     22 C13        -2.5752    8.3526   -0.1780 C.ar      1 <0>        -0.1343
     23 C14        -3.2686    9.5189    0.0975 C.ar      1 <0>        -0.1025
     24 C15        -3.4612    9.9255    1.4043 C.ar      1 <0>        -0.1469
     25 C16        -2.9606    9.1660    2.4491 C.ar      1 <0>         0.0953
     26 O4         -3.1497    9.5644    3.7335 O.3       1 <0>        -0.2875
     27 H1          5.2474   -0.2101   -0.5932 H         1 <0>         0.1214
     28 H2          6.1032    1.3342   -0.8194 H         1 <0>         0.0889
     29 H3          5.6356    0.8069    0.8151 H         1 <0>         0.0929
     30 H4          0.6771    0.8149   -2.6904 H         1 <0>         0.0853
     31 H5          0.7938   -0.3571   -1.3559 H         1 <0>         0.1125
     32 H6         -0.2513    1.0746   -1.1942 H         1 <0>         0.1104
     33 H7          4.6118    5.7472    1.1452 H         1 <0>         0.2120
     34 H8          2.3470    6.7783    0.3557 H         1 <0>         0.1163
     35 H9          1.2020    5.7070   -0.4867 H         1 <0>         0.1466
     36 H10        -0.1445    7.2417    1.2723 H         1 <0>         0.2249
     37 H11        -2.1843    7.2067    4.2534 H         1 <0>         0.1977
     38 H12        -1.5221    6.6802    0.6306 H         1 <0>         0.1541
     39 H13        -2.4290    8.0432   -1.2024 H         1 <0>         0.1385
     40 H14        -3.6609   10.1146   -0.7135 H         1 <0>         0.1383
     41 H15        -4.0025   10.8368    1.6112 H         1 <0>         0.1469
     42 H16        -2.4133   10.0728    4.1001 H         1 <0>         0.2336
@<TRIPOS>BOND
     1    1    2 1
     2    1   27 1
     3    1   28 1
     4    1   29 1
     5    2    8 am
     6    2    3 1
     7    3   13 1
     8    3    4 2
     9    4    5 1
    10    4   11 1
    11    5    6 2
    12    5    7 am
    13    7    8 am
    14    7   10 1
    15    8    9 2
    16   10   30 1
    17   10   31 1
    18   10   32 1
    19   11   12 1
    20   11   14 1
    21   12   13 2
    22   12   33 1
    23   14   15 1
    24   14   34 1
    25   14   35 1
    26   15   16 2
    27   15   17 am
    28   17   18 1
    29   17   36 1
    30   18   19 2
    31   19   20 1
    32   19   37 1
    33   20   25 ar
    34   20   21 ar
    35   21   22 ar
    36   21   38 1
    37   22   23 ar
    38   22   39 1
    39   23   24 ar
    40   23   40 1
    41   24   25 ar
    42   24   41 1
    43   25   26 1
    44   26   42 1
@<TRIPOS>MOLECULE
ZINC04470451
   42    44     0     0     0
SMALL
USER_CHARGES

@<TRIPOS>ATOM
      1 C1          2.1218    6.9771   -1.5112 C.3       1 <0>        -0.2262
      2 C2          1.6764    5.7629   -0.6939 C.3       1 <0>         0.0467
      3 H1          0.7193    5.4023   -1.0710 H         1 <0>         0.1250
      4 C3          1.5295    6.1577    0.7530 C.2       1 <0>         0.2945
      5 O1          2.1967    5.6063    1.6030 O.2       1 <0>        -0.2807
      6 N1          0.6570    7.1235    1.1028 N.am      1 <0>        -0.3477
      7 N2          0.5205    7.4906    2.4479 N.2       1 <0>         0.0282
      8 C4         -0.3938    8.3426    2.7986 C.2       1 <0>        -0.1111
      9 C5         -1.4463    8.7294    1.8422 C.ar      1 <0>        -0.0878
     10 C6         -1.8130    7.8598    0.8126 C.ar      1 <0>        -0.1715
     11 C7         -2.8054    8.2274   -0.0782 C.ar      1 <0>         0.0915
     12 C8         -3.4288    9.4626    0.0423 C.ar      1 <0>        -0.1979
     13 C9         -3.0678   10.3305    1.0551 C.ar      1 <0>        -0.1060
     14 C10        -2.0799    9.9738    1.9579 C.ar      1 <0>         0.0556
     15 O2         -1.7257   10.8286    2.9531 O.3       1 <0>        -0.2846
     16 O3         -3.1676    7.3796   -1.0779 O.3       1 <0>        -0.2141
     17 C11        -4.1948    7.8248   -1.9659 C.3       1 <0>        -0.0639
     18 N3          2.6788    4.7010   -0.8110 N.pl3     1 <0>        -0.1837
     19 C12         2.4825    3.4361   -1.3120 C.ar      1 <0>        -0.0191
     20 C13         1.3833    2.7640   -1.8358 C.ar      1 <0>        -0.1435
     21 C14         1.5162    1.4717   -2.2604 C.ar      1 <0>        -0.0867
     22 C15         2.7407    0.8218   -2.1737 C.ar      1 <0>        -0.1581
     23 C16         3.8340    1.4588   -1.6639 C.ar      1 <0>        -0.0445
     24 C17         3.7245    2.7840   -1.2216 C.ar      1 <0>        -0.1157
     25 N4          4.6043    3.6523   -0.6841 N.2       1 <0>        -0.0723
     26 N5          4.0281    4.7750   -0.4343 N.2       1 <0>         0.0693
     27 H2          3.0788    7.3377   -1.1341 H         1 <0>         0.1139
     28 H3          2.2280    6.6915   -2.5578 H         1 <0>         0.0966
     29 H4          1.3760    7.7672   -1.4241 H         1 <0>         0.0828
     30 H5          0.1235    7.5645    0.4232 H         1 <0>         0.2275
     31 H6         -0.3833    8.7681    3.7912 H         1 <0>         0.1994
     32 H7         -1.3258    6.9009    0.7147 H         1 <0>         0.1609
     33 H8         -4.1998    9.7461   -0.6589 H         1 <0>         0.1429
     34 H9         -3.5568   11.2895    1.1427 H         1 <0>         0.1480
     35 H10        -0.9630   11.3841    2.7415 H         1 <0>         0.2303
     36 H11        -4.3868    7.0558   -2.7141 H         1 <0>         0.1132
     37 H12        -5.1064    8.0166   -1.3999 H         1 <0>         0.0736
     38 H13        -3.8749    8.7417   -2.4610 H         1 <0>         0.0687
     39 H14         0.4286    3.2632   -1.9110 H         1 <0>         0.1283
     40 H15         0.6617    0.9514   -2.6672 H         1 <0>         0.1348
     41 H16         2.8284   -0.1994   -2.5141 H         1 <0>         0.1368
     42 H17         4.7809    0.9433   -1.6010 H         1 <0>         0.1465
@<TRIPOS>BOND
     1    1    2 1
     2    1   27 1
     3    1   28 1
     4    1   29 1
     5    2    3 1
     6    2    4 1
     7    2   18 1
     8    4    5 2
     9    4    6 am
    10    6    7 1
    11    6   30 1
    12    7    8 2
    13    8    9 1
    14    8   31 1
    15    9   14 ar
    16    9   10 ar
    17   10   11 ar
    18   10   32 1
    19   11   12 ar
    20   11   16 1
    21   12   13 ar
    22   12   33 1
    23   13   14 ar
    24   13   34 1
    25   14   15 1
    26   15   35 1
    27   16   17 1
    28   17   36 1
    29   17   37 1
    30   17   38 1
    31   18   26 1
    32   18   19 1
    33   19   24 ar
    34   19   20 ar
    35   20   21 ar
    36   20   39 1
    37   21   22 ar
    38   21   40 1
    39   22   23 ar
    40   22   41 1
    41   23   24 ar
    42   23   42 1
    43   24   25 1
    44   25   26 2
@<TRIPOS>MOLECULE
ZINC04479358
   43    45     0     0     0
SMALL
USER_CHARGES

@<TRIPOS>ATOM
      1 C1          0.5895   15.0433    0.0800 C.3       1 <0>        -0.0664
      2 O1          1.4730   13.9203    0.0658 O.3       1 <0>        -0.1931
      3 C2          0.9024   12.6857    0.0644 C.ar      1 <0>         0.0687
      4 C3         -0.4765   12.5603    0.0765 C.ar      1 <0>        -0.1890
      5 C4         -1.0652   11.3064    0.0747 C.ar      1 <0>        -0.1057
      6 C5         -0.2848   10.1711    0.0609 C.ar      1 <0>        -0.1346
      7 C6          1.1089   10.2809    0.0487 C.ar      1 <0>        -0.1271
      8 C7          1.7043   11.5487    0.0563 C.ar      1 <0>         0.1084
      9 O2          3.0564   11.6674    0.0506 O.3       1 <0>        -0.2034
     10 C8          3.6964   11.7348   -1.2253 C.3       1 <0>        -0.0459
     11 C9          1.9478    9.0683    0.0339 C.2       1 <0>         0.3394
     12 O3          3.1592    9.1674    0.0232 O.2       1 <0>        -0.2625
     13 N1          1.3713    7.8500    0.0321 N.am      1 <0>        -0.3529
     14 C10         2.1380    6.7417    0.0186 C.2       1 <0>         0.3749
     15 O4          3.3493    6.8408    0.0079 O.2       1 <0>        -0.2525
     16 C11         1.5073    5.4089    0.0167 C.2       1 <0>        -0.0459
     17 C12         2.1847    4.2047    0.0038 C.2       1 <0>        -0.1163
     18 C13         1.1435    3.1656    0.0081 C.ar      1 <0>        -0.1064
     19 C14         1.1641    1.7714    0.0005 C.ar      1 <0>        -0.0657
     20 C15        -0.0126    1.0758    0.0080 C.ar      1 <0>        -0.1450
     21 C16        -1.2263    1.7494    0.0174 C.ar      1 <0>        -0.0932
     22 C17        -1.2669    3.1264    0.0309 C.ar      1 <0>        -0.1218
     23 C18        -0.0815    3.8549    0.0235 C.ar      1 <0>         0.0397
     24 O5          0.1835    5.1757    0.0281 O.3       1 <0>        -0.0803
     25 C19         3.6475    4.0031   -0.0108 C.2       1 <0>         0.3794
     26 O6          4.2399    3.9254   -1.0696 O.2       1 <0>        -0.3404
     27 N2          4.3259    3.9051    1.1496 N.am      1 <0>        -0.4152
     28 H1         -0.0308   15.0063    0.9756 H         1 <0>         0.0694
     29 H2          1.1725   15.9643    0.0796 H         1 <0>         0.1141
     30 H3         -0.0472   15.0159   -0.8043 H         1 <0>         0.0665
     31 H4         -1.0963   13.4446    0.0877 H         1 <0>         0.1418
     32 H5         -2.1415   11.2183    0.0838 H         1 <0>         0.1361
     33 H6         -0.7497    9.1963    0.0593 H         1 <0>         0.1274
     34 H7          3.4797   10.8273   -1.7889 H         1 <0>         0.0702
     35 H8          3.3240   12.6003   -1.7733 H         1 <0>         0.0555
     36 H9          4.7735   11.8281   -1.0871 H         1 <0>         0.1116
     37 H10         0.4045    7.7709    0.0406 H         1 <0>         0.2397
     38 H11         2.1060    1.2432   -0.0117 H         1 <0>         0.1443
     39 H12         0.0021   -0.0041    0.0020 H         1 <0>         0.1394
     40 H13        -2.1488    1.1879    0.0184 H         1 <0>         0.1410
     41 H14        -2.2172    3.6396    0.0428 H         1 <0>         0.1419
     42 H15         3.8533    3.9670    1.9944 H         1 <0>         0.2173
     43 H16         5.2868    3.7726    1.1400 H         1 <0>         0.2365
@<TRIPOS>BOND
     1    1    2 1
     2    1   28 1
     3    1   29 1
     4    1   30 1
     5    2    3 1
     6    3    8 ar
     7    3    4 ar
     8    4    5 ar
     9    4   31 1
    10    5    6 ar
    11    5   32 1
    12    6    7 ar
    13    6   33 1
    14    7    8 ar
    15    7   11 1
    16    8    9 1
    17    9   10 1
    18   10   34 1
    19   10   35 1
    20   10   36 1
    21   11   12 2
    22   11   13 am
    23   13   14 am
    24   13   37 1
    25   14   15 2
    26   14   16 1
    27   16   24 1
    28   16   17 2
    29   17   18 1
    30   17   25 1
    31   18   23 ar
    32   18   19 ar
    33   19   20 ar
    34   19   38 1
    35   20   21 ar
    36   20   39 1
    37   21   22 ar
    38   21   40 1
    39   22   23 ar
    40   22   41 1
    41   23   24 1
    42   25   26 2
    43   25   27 am
    44   27   42 1
    45   27   43 1
@<TRIPOS>MOLECULE
ZINC04484140
   43    45     0     0     0
SMALL
USER_CHARGES

@<TRIPOS>ATOM
      1 C1         -0.0127    1.0858    0.0080 C.3       1 <0>        -0.1995
      2 C2         -0.7288    1.5792    1.2668 C.3       1 <0>        -0.0302
      3 C3          0.0111    1.0724    2.5063 C.3       1 <0>        -0.1997
      4 C4         -0.7496    3.1091    1.2752 C.3       1 <0>        -0.2064
      5 C5         -2.1427    1.0576    1.2775 C.ar      1 <0>        -0.0809
      6 C6         -2.3710   -0.2999    1.2724 C.ar      1 <0>        -0.0633
      7 C7         -3.6840   -0.7822    1.2828 C.ar      1 <0>        -0.1674
      8 C8         -3.9594   -2.2224    1.2772 C.2       1 <0>         0.1096
      9 C9         -5.2545   -2.6274    1.2874 C.2       1 <0>        -0.8678
     10 C10        -6.2896   -1.6672    1.3030 C.2       1 <0>         0.3954
     11 O1         -7.4478   -2.0432    1.3116 O.2       1 <0>        -0.2972
     12 O2         -6.0294   -0.3510    1.3080 O.3       1 <0>        -0.1490
     13 C11        -4.7626    0.1177    1.2984 C.ar      1 <0>         0.1139
     14 C12        -4.5103    1.4881    1.3038 C.ar      1 <0>         0.0520
     15 C13        -3.2058    1.9482    1.2982 C.ar      1 <0>        -0.0951
     16 O3         -5.5441    2.3711    1.3190 O.3       1 <0>        -0.2685
     17 S1         -5.6432   -4.3459    1.2820 S.o2      1 <0>         2.7568
     18 O4         -6.6164   -4.5390    0.2646 O.2       1 <0>        -0.8744
     19 O5         -4.4047   -5.0425    1.2935 O.2       1 <0>        -0.9180
     20 C14        -6.4373   -4.7053    2.8132 C.ar      1 <0>        -0.7429
     21 C15        -5.6863   -5.0938    3.9068 C.ar      1 <0>        -0.0336
     22 C16        -6.3089   -5.3711    5.1095 C.ar      1 <0>        -0.1558
     23 C17        -7.6834   -5.2696    5.2158 C.ar      1 <0>        -0.0720
     24 C18        -8.4350   -4.8867    4.1206 C.ar      1 <0>        -0.1520
     25 C19        -7.8119   -4.6043    2.9194 C.ar      1 <0>        -0.0061
     26 H1          0.0021   -0.0041    0.0020 H         1 <0>         0.0751
     27 H2          1.0099    1.4631    0.0003 H         1 <0>         0.0817
     28 H3         -0.5399    1.4469   -0.8751 H         1 <0>         0.0834
     29 H4          1.0337    1.4497    2.4986 H         1 <0>         0.0824
     30 H5         -0.4990    1.4239    3.4031 H         1 <0>         0.0794
     31 H6          0.0259   -0.0175    2.5003 H         1 <0>         0.0747
     32 H7         -1.2768    3.4701    0.3922 H         1 <0>         0.0814
     33 H8         -1.2598    3.4606    2.1720 H         1 <0>         0.0765
     34 H9          0.2730    3.4864    1.2675 H         1 <0>         0.0833
     35 H10        -1.5400   -0.9896    1.2600 H         1 <0>         0.1474
     36 H11        -3.1535   -2.9412    1.2650 H         1 <0>         0.1730
     37 H12        -3.0133    3.0109    1.3066 H         1 <0>         0.1616
     38 H13        -5.8345    2.6214    2.2067 H         1 <0>         0.2330
     39 H14        -4.6129   -5.1770    3.8227 H         1 <0>         0.1440
     40 H15        -5.7218   -5.6706    5.9651 H         1 <0>         0.1345
     41 H16        -8.1702   -5.4899    6.1544 H         1 <0>         0.1322
     42 H17        -9.5089   -4.8078    4.2036 H         1 <0>         0.1394
     43 H18        -8.3991   -4.3051    2.0637 H         1 <0>         0.1691
@<TRIPOS>BOND
     1    1    2 1
     2    1   26 1
     3    1   27 1
     4    1   28 1
     5    2    3 1
     6    2    4 1
     7    2    5 1
     8    3   29 1
     9    3   30 1
    10    3   31 1
    11    4   32 1
    12    4   33 1
    13    4   34 1
    14    5   15 ar
    15    5    6 ar
    16    6    7 ar
    17    6   35 1
    18    7   13 ar
    19    7    8 1
    20    8    9 2
    21    8   36 1
    22    9   10 1
    23    9   17 1
    24   10   11 2
    25   10   12 1
    26   12   13 1
    27   13   14 ar
    28   14   15 ar
    29   14   16 1
    30   15   37 1
    31   16   38 1
    32   17   18 2
    33   17   19 2
    34   17   20 1
    35   20   25 ar
    36   20   21 ar
    37   21   22 ar
    38   21   39 1
    39   22   23 ar
    40   22   40 1
    41   23   24 ar
    42   23   41 1
    43   24   25 ar
    44   24   42 1
    45   25   43 1
@<TRIPOS>MOLECULE
ZINC04488323
   41    42     0     0     0
SMALL
USER_CHARGES

@<TRIPOS>ATOM
      1 C1          4.5338    6.3319    0.0408 C.3       1 <0>        -0.2361
      2 C2          3.4365    5.3049   -0.0699 C.2       1 <0>         0.2999
      3 O1          2.2810    5.6603   -0.1691 O.2       1 <0>        -0.3519
      4 N1          3.7390    3.9916   -0.0586 N.am      1 <0>        -0.3294
      5 C3          2.7142    3.0367   -0.0638 C.ar      1 <0>         0.0475
      6 C4          2.8695    1.8477    0.6366 C.ar      1 <0>        -0.1467
      7 C5          1.8593    0.9069    0.6319 C.ar      1 <0>        -0.1426
      8 C6          0.6880    1.1493   -0.0736 C.ar      1 <0>         0.0381
      9 C7          0.5352    2.3356   -0.7791 C.ar      1 <0>        -0.1081
     10 C8          1.5427    3.2793   -0.7689 C.ar      1 <0>        -0.1098
     11 N2         -0.3371    0.1946   -0.0784 N.am      1 <0>        -0.3216
     12 C9         -1.6256    0.5895   -0.0954 C.2       1 <0>         0.3027
     13 O2         -1.8976    1.7680   -0.1863 O.2       1 <0>        -0.3442
     14 C10        -2.7284   -0.4333   -0.0014 C.3       1 <0>        -0.1690
     15 C11        -4.0846    0.2738   -0.0425 C.3       1 <0>        -0.2085
     16 H1         -4.1238    1.0916    0.6770 H         1 <0>         0.1824
     17 C12        -5.2275   -0.7080    0.1726 C.2       1 <0>         0.3053
     18 O3         -5.3540   -1.3403    1.1993 O.2       1 <0>        -0.3055
     19 N3         -6.0728   -0.8242   -0.8377 N.am      1 <0>        -0.3280
     20 C13        -5.9521   -0.1331   -1.9864 C.2       1 <0>         0.2305
     21 O4         -6.6736   -0.1721   -2.9641 O.2       1 <0>        -0.2555
     22 S1         -4.4840    0.8548   -1.7391 S.3       1 <0>         0.1124
     23 C14        -7.1977   -1.7526   -0.6998 C.3       1 <0>        -0.0051
     24 C15        -8.3782   -1.0270   -0.1075 C.2       1 <0>        -0.1997
     25 C16        -9.5312   -1.0350   -0.7293 C.2       1 <0>        -0.1874
     26 H2          5.4967    5.8275    0.1210 H         1 <0>         0.0768
     27 H3          4.5286    6.9662   -0.8456 H         1 <0>         0.1133
     28 H4          4.3697    6.9448    0.9271 H         1 <0>         0.1157
     29 H5          4.6664    3.7076   -0.0469 H         1 <0>         0.2306
     30 H6          3.7804    1.6592    1.1853 H         1 <0>         0.1308
     31 H7          1.9801   -0.0178    1.1766 H         1 <0>         0.1299
     32 H8         -0.3739    2.5222   -1.3314 H         1 <0>         0.1698
     33 H9          1.4218    4.2042   -1.3134 H         1 <0>         0.1716
     34 H10        -0.1195   -0.7506   -0.0735 H         1 <0>         0.2315
     35 H11        -2.6541   -1.1258   -0.8399 H         1 <0>         0.1176
     36 H12        -2.6341   -0.9843    0.9344 H         1 <0>         0.1304
     37 H13        -7.4671   -2.1452   -1.6804 H         1 <0>         0.1161
     38 H14        -6.9113   -2.5757   -0.0452 H         1 <0>         0.1229
     39 H15        -8.2737   -0.5004    0.8296 H         1 <0>         0.1365
     40 H16        -9.6357   -1.5616   -1.6664 H         1 <0>         0.1173
     41 H17       -10.3773   -0.5150   -0.3048 H         1 <0>         0.1196
@<TRIPOS>BOND
     1    1    2 1
     2    1   26 1
     3    1   27 1
     4    1   28 1
     5    2    3 2
     6    2    4 am
     7    4    5 1
     8    4   29 1
     9    5   10 ar
    10    5    6 ar
    11    6    7 ar
    12    6   30 1
    13    7    8 ar
    14    7   31 1
    15    8    9 ar
    16    8   11 1
    17    9   10 ar
    18    9   32 1
    19   10   33 1
    20   11   12 am
    21   11   34 1
    22   12   13 2
    23   12   14 1
    24   14   15 1
    25   14   35 1
    26   14   36 1
    27   15   16 1
    28   15   22 1
    29   15   17 1
    30   17   18 2
    31   17   19 am
    32   19   20 am
    33   19   23 1
    34   20   21 2
    35   20   22 1
    36   23   24 1
    37   23   37 1
    38   23   38 1
    39   24   25 2
    40   24   39 1
    41   25   40 1
    42   25   41 1
@<TRIPOS>MOLECULE
ZINC04500759
   42    43     0     0     0
SMALL
USER_CHARGES

@<TRIPOS>ATOM
      1 C1         -0.5806   -0.8775    1.0441 C.3       1 <0>        -0.2309
      2 C2          0.1168   -0.2571   -0.1682 C.3       1 <0>         0.0179
      3 H1         -0.2766   -0.7035   -1.0815 H         1 <0>         0.1304
      4 C3         -0.1346    1.2286   -0.1865 C.2       1 <0>         0.3044
      5 O1          0.7981    2.0022   -0.1342 O.2       1 <0>        -0.3348
      6 N1         -1.3955    1.6978   -0.2667 N.am      1 <0>        -0.3152
      7 C4         -1.6348    3.0763   -0.2066 C.ar      1 <0>         0.0282
      8 C5         -0.6461    3.9715   -0.5911 C.ar      1 <0>        -0.1179
      9 C6         -0.8870    5.3307   -0.5362 C.ar      1 <0>        -0.1240
     10 C7         -2.1076    5.8014   -0.0879 C.ar      1 <0>        -0.1221
     11 C8         -3.0937    4.9139    0.3016 C.ar      1 <0>        -0.1475
     12 C9         -2.8615    3.5517    0.2439 C.ar      1 <0>         0.0582
     13 F1         -3.8247    2.6843    0.6249 F         1 <0>        -0.1119
     14 O2          1.5450   -0.5054   -0.0845 O.3       1 <0>        -0.2350
     15 C10         2.0040   -1.6360   -0.6563 C.2       1 <0>         0.3614
     16 O3          1.2319   -2.3937   -1.2098 O.2       1 <0>        -0.3650
     17 C11         3.4425   -1.9535   -0.6104 C.ar      1 <0>        -0.1893
     18 C12         4.3333   -1.0797    0.0212 C.ar      1 <0>         0.0101
     19 C13         5.6654   -1.3773    0.0685 C.ar      1 <0>        -0.2399
     20 C14         6.1437   -2.5445   -0.5211 C.ar      1 <0>         0.2024
     21 C15         5.2651   -3.4175   -1.1572 C.ar      1 <0>        -0.2217
     22 C16         3.9206   -3.1265   -1.2034 C.ar      1 <0>         0.0431
     23 N2          5.7764   -4.6577   -1.7827 N.pl3     1 <0>         0.5656
     24 O4          5.0269   -5.3677   -2.4290 O.2       1 <0>        -0.3409
     25 O5          6.9468   -4.9684   -1.6511 O.3       1 <0>        -0.3912
     26 N3          7.5015   -2.8390   -0.4743 N.pl3     1 <0>        -0.3414
     27 C17         8.4092   -1.9887    0.2997 C.3       1 <0>        -0.0679
     28 H2         -0.1872   -0.4312    1.9574 H         1 <0>         0.0985
     29 H3         -1.6527   -0.6912    0.9812 H         1 <0>         0.0876
     30 H4         -0.3988   -1.9521    1.0573 H         1 <0>         0.1029
     31 H5         -2.1372    1.0806   -0.3661 H         1 <0>         0.2417
     32 H6          0.3092    3.6056   -0.9372 H         1 <0>         0.1857
     33 H7         -0.1191    6.0270   -0.8393 H         1 <0>         0.1391
     34 H8         -2.2909    6.8647   -0.0417 H         1 <0>         0.1367
     35 H9         -4.0457    5.2847    0.6516 H         1 <0>         0.1468
     36 H10         3.9669   -0.1710    0.4756 H         1 <0>         0.1643
     37 H11         6.3506   -0.7028    0.5605 H         1 <0>         0.1535
     38 H12         3.2369   -3.8017   -1.6964 H         1 <0>         0.1858
     39 H13         7.8479   -3.6076   -0.9541 H         1 <0>         0.2770
     40 H14         8.1035   -1.9887    1.3460 H         1 <0>         0.0801
     41 H15         9.4257   -2.3736    0.2182 H         1 <0>         0.0975
     42 H16         8.3738   -0.9710   -0.0891 H         1 <0>         0.0777
@<TRIPOS>BOND
     1    1    2 1
     2    1   28 1
     3    1   29 1
     4    1   30 1
     5    2    3 1
     6    2    4 1
     7    2   14 1
     8    4    5 2
     9    4    6 am
    10    6    7 1
    11    6   31 1
    12    7   12 ar
    13    7    8 ar
    14    8    9 ar
    15    8   32 1
    16    9   10 ar
    17    9   33 1
    18   10   11 ar
    19   10   34 1
    20   11   12 ar
    21   11   35 1
    22   12   13 1
    23   14   15 1
    24   15   16 2
    25   15   17 1
    26   17   22 ar
    27   17   18 ar
    28   18   19 ar
    29   18   36 1
    30   19   20 ar
    31   19   37 1
    32   20   21 ar
    33   20   26 1
    34   21   22 ar
    35   21   23 1
    36   22   38 1
    37   23   24 2
    38   23   25 1
    39   26   27 1
    40   26   39 1
    41   27   40 1
    42   27   41 1
    43   27   42 1
@<TRIPOS>MOLECULE
ZINC04500766
   42    43     0     0     0
SMALL
USER_CHARGES

@<TRIPOS>ATOM
      1 C1          5.4985    4.5859   -1.6471 C.3       1 <0>        -0.2310
      2 C2          4.8604    4.3372   -0.2789 C.3       1 <0>         0.0164
      3 H1          5.5121    3.6963    0.3148 H         1 <0>         0.1305
      4 C3          4.6664    5.6521    0.4314 C.2       1 <0>         0.3001
      5 O1          3.5532    6.0073    0.7566 O.2       1 <0>        -0.3282
      6 N1          5.7299    6.4334    0.7053 N.am      1 <0>        -0.3255
      7 C4          5.5649    7.6006    1.4592 C.ar      1 <0>         0.0620
      8 C5          6.3645    8.7084    1.2105 C.ar      1 <0>        -0.1603
      9 C6          6.1956    9.8608    1.9530 C.ar      1 <0>        -0.1104
     10 C7          5.2389    9.9084    2.9504 C.ar      1 <0>        -0.1428
     11 C8          4.4450    8.8050    3.2043 C.ar      1 <0>        -0.1099
     12 C9          4.6051    7.6516    2.4616 C.ar      1 <0>        -0.1264
     13 O2          3.5736    3.6882   -0.4557 O.3       1 <0>        -0.2340
     14 C10         3.5657    2.3408   -0.4763 C.2       1 <0>         0.3611
     15 O3          4.6057    1.7251   -0.3499 O.2       1 <0>        -0.3660
     16 C11         2.2958    1.6139   -0.6521 C.ar      1 <0>        -0.1891
     17 C12         1.0980    2.3209   -0.7986 C.ar      1 <0>         0.0103
     18 C13        -0.0785    1.6469   -0.9619 C.ar      1 <0>        -0.2398
     19 C14        -0.0911    0.2547   -0.9833 C.ar      1 <0>         0.2022
     20 C15         1.0966   -0.4576   -0.8386 C.ar      1 <0>        -0.2219
     21 C16         2.2858    0.2155   -0.6736 C.ar      1 <0>         0.0427
     22 N2          1.0801   -1.9375   -0.8617 N.pl3     1 <0>         0.5661
     23 O4          2.0994   -2.5616   -0.6267 O.2       1 <0>        -0.3410
     24 O5          0.0474   -2.5312   -1.1156 O.3       1 <0>        -0.3918
     25 N3         -1.2918   -0.4256   -1.1498 N.pl3     1 <0>        -0.3426
     26 C17        -2.5565    0.3137   -1.1651 C.3       1 <0>        -0.0682
     27 H2          4.8468    5.2269   -2.2408 H         1 <0>         0.0982
     28 H3          6.4644    5.0732   -1.5143 H         1 <0>         0.0827
     29 H4          5.6388    3.6349   -2.1608 H         1 <0>         0.1025
     30 H5          6.6097    6.1866    0.3798 H         1 <0>         0.2332
     31 H6          7.1146    8.6705    0.4344 H         1 <0>         0.1284
     32 H7          6.8141   10.7242    1.7571 H         1 <0>         0.1315
     33 H8          5.1114   10.8094    3.5320 H         1 <0>         0.1302
     34 H9          3.6987    8.8453    3.9839 H         1 <0>         0.1344
     35 H10         3.9847    6.7902    2.6603 H         1 <0>         0.1593
     36 H11         1.1035    3.4008   -0.7829 H         1 <0>         0.1649
     37 H12        -1.0014    2.1954   -1.0793 H         1 <0>         0.1536
     38 H13         3.2084   -0.3345   -0.5608 H         1 <0>         0.1856
     39 H14        -1.2924   -1.3898   -1.2559 H         1 <0>         0.2779
     40 H15        -3.3830   -0.3830   -1.3049 H         1 <0>         0.0973
     41 H16        -2.6812    0.8401   -0.2189 H         1 <0>         0.0801
     42 H17        -2.5464    1.0342   -1.9831 H         1 <0>         0.0776
@<TRIPOS>BOND
     1    1    2 1
     2    1   27 1
     3    1   28 1
     4    1   29 1
     5    2    3 1
     6    2    4 1
     7    2   13 1
     8    4    5 2
     9    4    6 am
    10    6    7 1
    11    6   30 1
    12    7   12 ar
    13    7    8 ar
    14    8    9 ar
    15    8   31 1
    16    9   10 ar
    17    9   32 1
    18   10   11 ar
    19   10   33 1
    20   11   12 ar
    21   11   34 1
    22   12   35 1
    23   13   14 1
    24   14   15 2
    25   14   16 1
    26   16   21 ar
    27   16   17 ar
    28   17   18 ar
    29   17   36 1
    30   18   19 ar
    31   18   37 1
    32   19   20 ar
    33   19   25 1
    34   20   21 ar
    35   20   22 1
    36   21   38 1
    37   22   23 2
    38   22   24 1
    39   25   26 1
    40   25   39 1
    41   26   40 1
    42   26   41 1
    43   26   42 1
@<TRIPOS>MOLECULE
ZINC04505136
   39    41     0     0     0
SMALL
USER_CHARGES

@<TRIPOS>ATOM
      1 C1          4.2942    4.3746   -0.1844 C.3       1 <0>        -0.1741
      2 C2          3.3453    3.2076   -0.0913 C.ar      1 <0>        -0.0655
      3 C3          3.0829    2.4409   -1.2117 C.ar      1 <0>        -0.1302
      4 C4          2.2137    1.3689   -1.1323 C.ar      1 <0>        -0.1326
      5 C5          1.6026    1.0599    0.0722 C.ar      1 <0>         0.0303
      6 C6          1.8624    1.8350    1.2000 C.ar      1 <0>         0.0405
      7 C7          2.7398    2.9061    1.1138 C.ar      1 <0>        -0.1170
      8 N1          1.2428    1.5308    2.4195 N.am      1 <0>        -0.3235
      9 C8          1.9057    1.7196    3.5777 C.2       1 <0>         0.2975
     10 O1          3.0070    2.2279    3.5703 O.2       1 <0>        -0.3195
     11 C9          1.2786    1.2991    4.8819 C.3       1 <0>        -0.0352
     12 H1          0.9554    0.2590    4.8397 H         1 <0>         0.1182
     13 C10         0.1014    2.2310    5.2562 C.3       1 <0>        -0.1851
     14 C11         0.2400    2.3489    6.7621 C.2       1 <0>        -0.0720
     15 N2          1.4161    1.9306    7.0941 N.2       1 <0>         0.0381
     16 O2          2.1847    1.5137    5.9830 O.3       1 <0>        -0.1531
     17 C12        -0.7911    2.8534    7.6880 C.ar      1 <0>        -0.0625
     18 C13        -2.0282    3.2769    7.1979 C.ar      1 <0>        -0.0933
     19 C14        -2.9881    3.7470    8.0689 C.ar      1 <0>        -0.1429
     20 C15        -2.7309    3.8017    9.4283 C.ar      1 <0>        -0.0968
     21 C16        -1.5112    3.3853    9.9258 C.ar      1 <0>        -0.1594
     22 C17        -0.5370    2.9050    9.0649 C.ar      1 <0>         0.1132
     23 O3          0.6601    2.4906    9.5532 O.3       1 <0>        -0.2745
     24 O4          0.7470    0.0061    0.1518 O.3       1 <0>        -0.2961
     25 H2          3.7384    5.2748   -0.4466 H         1 <0>         0.0858
     26 H3          4.7877    4.5193    0.7767 H         1 <0>         0.0907
     27 H4          5.0430    4.1738   -0.9507 H         1 <0>         0.0819
     28 H5          3.5581    2.6805   -2.1515 H         1 <0>         0.1343
     29 H6          2.0112    0.7719   -2.0092 H         1 <0>         0.1417
     30 H7          2.9466    3.5065    1.9874 H         1 <0>         0.1692
     31 H8          0.3369    1.1843    2.4301 H         1 <0>         0.2396
     32 H9          0.2125    3.2051    4.7799 H         1 <0>         0.1225
     33 H10        -0.8524    1.7755    4.9899 H         1 <0>         0.1082
     34 H11        -2.2326    3.2365    6.1382 H         1 <0>         0.1337
     35 H12        -3.9447    4.0744    7.6890 H         1 <0>         0.1365
     36 H13        -3.4882    4.1717   10.1036 H         1 <0>         0.1365
     37 H14        -1.3180    3.4302   10.9875 H         1 <0>         0.1470
     38 H15         1.3268    3.1892    9.6050 H         1 <0>         0.2414
     39 H16         1.1740   -0.8308    0.3805 H         1 <0>         0.2265
@<TRIPOS>BOND
     1    1    2 1
     2    1   25 1
     3    1   26 1
     4    1   27 1
     5    2    7 ar
     6    2    3 ar
     7    3    4 ar
     8    3   28 1
     9    4    5 ar
    10    4   29 1
    11    5    6 ar
    12    5   24 1
    13    6    7 ar
    14    6    8 1
    15    7   30 1
    16    8    9 am
    17    8   31 1
    18    9   10 2
    19    9   11 1
    20   11   12 1
    21   11   16 1
    22   11   13 1
    23   13   14 1
    24   13   32 1
    25   13   33 1
    26   14   15 2
    27   14   17 1
    28   15   16 1
    29   17   22 ar
    30   17   18 ar
    31   18   19 ar
    32   18   34 1
    33   19   20 ar
    34   19   35 1
    35   20   21 ar
    36   20   36 1
    37   21   22 ar
    38   21   37 1
    39   22   23 1
    40   23   38 1
    41   24   39 1
@<TRIPOS>MOLECULE
ZINC04509491
   42    44     0     0     0
SMALL
USER_CHARGES

@<TRIPOS>ATOM
      1 C1         -4.7721    5.6280    0.1847 C.3       1 <0>        -0.0684
      2 N1         -4.8695    4.1699    0.0812 N.pl3     1 <0>        -0.3420
      3 C2         -3.7149    3.3959    0.0610 C.ar      1 <0>         0.2023
      4 C3         -2.4665    4.0115    0.0255 C.ar      1 <0>        -0.2394
      5 C4         -1.3284    3.2565    0.0104 C.ar      1 <0>         0.0099
      6 C5         -1.4138    1.8606    0.0196 C.ar      1 <0>        -0.1898
      7 C6         -2.6666    1.2400    0.0552 C.ar      1 <0>         0.0431
      8 C7         -3.8095    2.0068    0.0757 C.ar      1 <0>        -0.2220
      9 N2         -5.1381    1.3552    0.1129 N.pl3     1 <0>         0.5661
     10 O1         -5.2200    0.1454    0.2279 O.2       1 <0>        -0.3409
     11 O2         -6.1493    2.0288    0.0285 O.3       1 <0>        -0.3913
     12 C8         -0.1862    1.0455   -0.0020 C.2       1 <0>         0.3610
     13 O3         -0.2618   -0.1673    0.0111 O.2       1 <0>        -0.3643
     14 O4          1.0201    1.6450   -0.0419 O.3       1 <0>        -0.2368
     15 C9          2.1858    0.7796   -0.0674 C.3       1 <0>        -0.0233
     16 C10         3.4352    1.6210   -0.1107 C.2       1 <0>         0.2973
     17 O5          3.3515    2.8310   -0.1192 O.2       1 <0>        -0.3244
     18 N3          4.6457    1.0291   -0.1399 N.am      1 <0>        -0.3244
     19 C11         5.8031    1.8074   -0.2716 C.ar      1 <0>         0.0642
     20 C12         6.8867    1.3237   -0.9925 C.ar      1 <0>        -0.1572
     21 C13         8.0273    2.0919   -1.1267 C.ar      1 <0>        -0.0963
     22 C14         8.0968    3.3428   -0.5350 C.ar      1 <0>        -0.0101
     23 C15         7.0134    3.8285    0.1933 C.ar      1 <0>         0.0223
     24 C16         5.8688    3.0597    0.3234 C.ar      1 <0>        -0.1142
     25 O6          7.3286    5.0682    0.6701 O.3       1 <0>        -0.2024
     26 C17         8.7618    5.1650    0.5721 C.3       1 <0>         0.1067
     27 O7          9.0911    4.2792   -0.5141 O.3       1 <0>        -0.2074
     28 H1         -5.7730    6.0597    0.1858 H         1 <0>         0.0975
     29 H2         -4.2610    5.8932    1.1102 H         1 <0>         0.0796
     30 H3         -4.2100    6.0158   -0.6648 H         1 <0>         0.0786
     31 H4         -5.7395    3.7445    0.0269 H         1 <0>         0.2780
     32 H5         -2.3978    5.0892    0.0142 H         1 <0>         0.1542
     33 H6         -0.3619    3.7379   -0.0129 H         1 <0>         0.1660
     34 H7         -2.7371    0.1624    0.0669 H         1 <0>         0.1856
     35 H8          2.1969    0.1585    0.8283 H         1 <0>         0.1111
     36 H9          2.1460    0.1424   -0.9509 H         1 <0>         0.1132
     37 H10         4.7155    0.0641   -0.0698 H         1 <0>         0.2356
     38 H11         6.8367    0.3474   -1.4515 H         1 <0>         0.1390
     39 H12         8.8675    1.7153   -1.6914 H         1 <0>         0.1466
     40 H13         5.0275    3.4346    0.8873 H         1 <0>         0.1778
     41 H14         9.2324    4.8293    1.4962 H         1 <0>         0.0874
     42 H15         9.0639    6.1860    0.3388 H         1 <0>         0.1314
@<TRIPOS>BOND
     1    1    2 1
     2    1   28 1
     3    1   29 1
     4    1   30 1
     5    2    3 1
     6    2   31 1
     7    3    8 ar
     8    3    4 ar
     9    4    5 ar
    10    4   32 1
    11    5    6 ar
    12    5   33 1
    13    6    7 ar
    14    6   12 1
    15    7    8 ar
    16    7   34 1
    17    8    9 1
    18    9   10 2
    19    9   11 1
    20   12   13 2
    21   12   14 1
    22   14   15 1
    23   15   16 1
    24   15   35 1
    25   15   36 1
    26   16   17 2
    27   16   18 am
    28   18   19 1
    29   18   37 1
    30   19   24 ar
    31   19   20 ar
    32   20   21 ar
    33   20   38 1
    34   21   22 ar
    35   21   39 1
    36   22   27 1
    37   22   23 ar
    38   23   24 ar
    39   23   25 1
    40   24   40 1
    41   25   26 1
    42   26   27 1
    43   26   41 1
    44   26   42 1
@<TRIPOS>MOLECULE
ZINC04510180
   39    41     0     0     0
SMALL
USER_CHARGES

@<TRIPOS>ATOM
      1 C1         -2.5513    3.8822    0.0484 C.3       1 <0>        -0.1889
      2 C2         -1.2387    3.1421    0.0313 C.ar      1 <0>        -0.0509
      3 C3         -0.0491    3.8443    0.0233 C.ar      1 <0>        -0.1212
      4 C4          1.1555    3.1661    0.0076 C.ar      1 <0>        -0.1089
      5 C5          1.1735    1.7832    0.0004 C.ar      1 <0>        -0.1281
      6 C6         -0.0126    1.0758    0.0080 C.ar      1 <0>        -0.1088
      7 C7         -1.2238    1.7543    0.0174 C.ar      1 <0>         0.0144
      8 N1         -2.4300    1.0386    0.0191 N.pl3     1 <0>        -0.1061
      9 C8         -2.8991    0.2095    1.0034 C.2       1 <0>        -0.1217
     10 N2         -4.0528   -0.2484    0.6068 N.2       1 <0>        -0.0847
     11 N3         -4.3406    0.2223   -0.5539 N.2       1 <0>        -0.1147
     12 C9         -3.3806    1.0184   -0.9643 C.2       1 <0>        -0.2202
     13 S1         -3.3272    1.8949   -2.4919 S.3       1 <0>         0.3065
     14 C10        -4.8986    1.3622   -3.2151 C.3       1 <0>        -0.3175
     15 C11        -5.0735    2.0058   -4.5665 C.2       1 <0>         0.2831
     16 O1         -4.2196    2.7512   -4.9983 O.2       1 <0>        -0.2745
     17 C12        -6.2777    1.7304   -5.3607 C.ar      1 <0>        -0.1569
     18 C13        -7.2619    0.8657   -4.8668 C.ar      1 <0>        -0.0835
     19 C14        -8.3930    0.6146   -5.6105 C.ar      1 <0>        -0.1564
     20 C15        -8.5552    1.2068   -6.8566 C.ar      1 <0>         0.0797
     21 C16        -7.5763    2.0645   -7.3584 C.ar      1 <0>         0.0308
     22 C17        -6.4423    2.3273   -6.6167 C.ar      1 <0>        -0.0785
     23 O2         -7.7396    2.6424   -8.5786 O.3       1 <0>        -0.2721
     24 O3         -9.6698    0.9504   -7.5878 O.3       1 <0>        -0.2762
     25 H1         -2.8781    4.0662   -0.9751 H         1 <0>         0.1102
     26 H2         -3.2998    3.2826    0.5665 H         1 <0>         0.0925
     27 H3         -2.4256    4.8331    0.5662 H         1 <0>         0.0873
     28 H4         -0.0601    4.9243    0.0296 H         1 <0>         0.1419
     29 H5          2.0843    3.7172    0.0014 H         1 <0>         0.1369
     30 H6          2.1160    1.2560   -0.0114 H         1 <0>         0.1393
     31 H7          0.0021   -0.0041    0.0020 H         1 <0>         0.1436
     32 H8         -2.4053   -0.0205    1.9359 H         1 <0>         0.2148
     33 H9         -4.8983    0.3674   -3.3171 H         1 <0>         0.1299
     34 H10        -5.7187    1.6603   -2.5619 H         1 <0>         0.1426
     35 H11        -7.1362    0.3998   -3.9006 H         1 <0>         0.1453
     36 H12        -9.1540   -0.0485   -5.2262 H         1 <0>         0.1504
     37 H13        -5.6837    2.9912   -7.0043 H         1 <0>         0.1664
     38 H14        -7.3797    2.1235   -9.3109 H         1 <0>         0.2245
     39 H15        -9.5859    0.1899   -8.1791 H         1 <0>         0.2298
@<TRIPOS>BOND
     1    1    2 1
     2    1   25 1
     3    1   26 1
     4    1   27 1
     5    2    7 ar
     6    2    3 ar
     7    3    4 ar
     8    3   28 1
     9    4    5 ar
    10    4   29 1
    11    5    6 ar
    12    5   30 1
    13    6    7 ar
    14    6   31 1
    15    7    8 1
    16    8   12 1
    17    8    9 1
    18    9   10 2
    19    9   32 1
    20   10   11 1
    21   11   12 2
    22   12   13 1
    23   13   14 1
    24   14   15 1
    25   14   33 1
    26   14   34 1
    27   15   16 2
    28   15   17 1
    29   17   22 ar
    30   17   18 ar
    31   18   19 ar
    32   18   35 1
    33   19   20 ar
    34   19   36 1
    35   20   21 ar
    36   20   24 1
    37   21   22 ar
    38   21   23 1
    39   22   37 1
    40   23   38 1
    41   24   39 1
@<TRIPOS>MOLECULE
ZINC04511285
   42    44     0     0     0
SMALL
USER_CHARGES

@<TRIPOS>ATOM
      1 C1          7.7602    9.6404   -4.8129 C.3       1 <0>        -0.0623
      2 O1          7.7226    9.2317   -3.4441 O.3       1 <0>        -0.2143
      3 C2          6.4965    9.0121   -2.8989 C.ar      1 <0>         0.0726
      4 C3          6.3880    8.6133   -1.5747 C.ar      1 <0>        -0.1359
      5 C4          5.1431    8.3897   -1.0204 C.ar      1 <0>        -0.1319
      6 C5          3.9999    8.5641   -1.7889 C.ar      1 <0>         0.0461
      7 C6          4.1096    8.9577   -3.1159 C.ar      1 <0>        -0.1211
      8 C7          5.3548    9.1865   -3.6672 C.ar      1 <0>        -0.1965
      9 N1          2.7365    8.3374   -1.2272 N.am      1 <0>        -0.2721
     10 C8          2.5037    8.0202    0.1867 C.3       1 <0>        -0.0104
     11 C9          1.0746    7.4370    0.2484 C.3       1 <0>        -0.1591
     12 H1          0.5653    7.7467    1.1610 H         1 <0>         0.1283
     13 C10         0.4184    8.0783   -0.9963 C.3       1 <0>        -0.1951
     14 C11         1.5820    8.3820   -1.9141 C.2       1 <0>         0.3131
     15 O2          1.4870    8.6292   -3.0978 O.2       1 <0>        -0.3436
     16 C12         1.0995    5.9348    0.1312 C.2       1 <0>         0.3071
     17 O3          2.1593    5.3448    0.1205 O.2       1 <0>        -0.3451
     18 N2         -0.0557    5.2468    0.0383 N.am      1 <0>        -0.3142
     19 C13        -0.0394    3.8457    0.0469 C.ar      1 <0>         0.0395
     20 C14         1.0126    3.1661    0.6434 C.ar      1 <0>        -0.1258
     21 C15         1.0263    1.7842    0.6510 C.ar      1 <0>        -0.1164
     22 C16        -0.0065    1.0759    0.0648 C.ar      1 <0>        -0.1333
     23 C17        -1.0554    1.7463   -0.5365 C.ar      1 <0>        -0.1324
     24 C18        -1.0797    3.1316   -0.5430 C.ar      1 <0>         0.0319
     25 O4         -2.1135    3.7924   -1.1292 O.3       1 <0>        -0.2963
     26 H2          8.7960    9.7808   -5.1219 H         1 <0>         0.1063
     27 H3          7.2965    8.8738   -5.4338 H         1 <0>         0.0686
     28 H4          7.2166   10.5783   -4.9271 H         1 <0>         0.0672
     29 H5          7.2773    8.4773   -0.9771 H         1 <0>         0.1447
     30 H6          5.0588    8.0795    0.0106 H         1 <0>         0.1353
     31 H7          3.2210    9.0888   -3.7155 H         1 <0>         0.1822
     32 H8          5.4400    9.4970   -4.6981 H         1 <0>         0.1391
     33 H9          2.5686    8.9245    0.7918 H         1 <0>         0.0941
     34 H10         3.2276    7.2819    0.5318 H         1 <0>         0.1303
     35 H11        -0.2680    7.3765   -1.4699 H         1 <0>         0.1201
     36 H12        -0.1016    8.9965   -0.7230 H         1 <0>         0.1246
     37 H13        -0.8984    5.7216   -0.0345 H         1 <0>         0.2428
     38 H14         1.8210    3.7168    1.1014 H         1 <0>         0.1721
     39 H15         1.8459    1.2562    1.1157 H         1 <0>         0.1367
     40 H16         0.0085   -0.0039    0.0728 H         1 <0>         0.1337
     41 H17        -1.8583    1.1901   -0.9973 H         1 <0>         0.1422
     42 H18        -1.9768    3.9835   -2.0672 H         1 <0>         0.2273
@<TRIPOS>BOND
     1    1    2 1
     2    1   26 1
     3    1   27 1
     4    1   28 1
     5    2    3 1
     6    3    8 ar
     7    3    4 ar
     8    4    5 ar
     9    4   29 1
    10    5    6 ar
    11    5   30 1
    12    6    7 ar
    13    6    9 1
    14    7    8 ar
    15    7   31 1
    16    8   32 1
    17    9   14 am
    18    9   10 1
    19   10   11 1
    20   10   33 1
    21   10   34 1
    22   11   12 1
    23   11   13 1
    24   11   16 1
    25   13   14 1
    26   13   35 1
    27   13   36 1
    28   14   15 2
    29   16   17 2
    30   16   18 am
    31   18   19 1
    32   18   37 1
    33   19   24 ar
    34   19   20 ar
    35   20   21 ar
    36   20   38 1
    37   21   22 ar
    38   21   39 1
    39   22   23 ar
    40   22   40 1
    41   23   24 ar
    42   23   41 1
    43   24   25 1
    44   25   42 1
@<TRIPOS>MOLECULE
ZINC04517021
   41    42     0     0     0
SMALL
USER_CHARGES

@<TRIPOS>ATOM
      1 C1         -6.5215   -4.6435   -0.9142 C.3       1 <0>        -0.1696
      2 C2         -5.2517   -5.4244   -1.1353 C.ar      1 <0>         0.0559
      3 C3         -5.3040   -6.7434   -1.5585 C.ar      1 <0>        -0.2650
      4 C4         -4.1128   -7.4259   -1.7499 C.ar      1 <0>         0.0589
      5 N1         -2.9684   -6.8024   -1.5246 N.ar      1 <0>        -0.2007
      6 C5         -2.9528   -5.5400   -1.1204 C.ar      1 <0>        -0.0726
      7 N2         -4.0741   -4.8611   -0.9228 N.ar      1 <0>        -0.2467
      8 S1         -1.4055   -4.7481   -0.8321 S.3       1 <0>         0.3484
      9 C6         -1.9812   -3.1099   -0.3211 C.3       1 <0>        -0.2605
     10 H1         -2.6373   -2.6996   -1.0887 H         1 <0>         0.1451
     11 C7         -2.7494   -3.2276    0.9969 C.3       1 <0>        -0.2088
     12 C8         -0.7968   -2.1975   -0.1324 C.2       1 <0>         0.3232
     13 O1          0.3090   -2.6662    0.0360 O.2       1 <0>        -0.3524
     14 N3         -0.9664   -0.8606   -0.1509 N.am      1 <0>        -0.3108
     15 C9          0.1398   -0.0171   -0.0789 C.ar      1 <0>         0.1289
     16 C10         1.1709   -0.2930    0.8092 C.ar      1 <0>        -0.1337
     17 C11         2.2665    0.5436    0.8782 C.ar      1 <0>        -0.0866
     18 C12         2.3470    1.6623    0.0646 C.ar      1 <0>        -0.1528
     19 C13         1.3329    1.9523   -0.8221 C.ar      1 <0>        -0.0895
     20 C14         0.2179    1.1148   -0.9036 C.ar      1 <0>        -0.1670
     21 C15        -0.8680    1.4155   -1.8557 C.2       1 <0>         0.3610
     22 O2         -1.8327    0.6791   -1.9301 O.2       1 <0>        -0.3920
     23 N4         -0.7909    2.5066   -2.6432 N.am      1 <0>        -0.4238
     24 C16        -4.1216   -8.8610   -2.2098 C.3       1 <0>        -0.1687
     25 H2         -6.8498   -4.7683    0.1177 H         1 <0>         0.0970
     26 H3         -6.3377   -3.5874   -1.1118 H         1 <0>         0.1025
     27 H4         -7.2955   -5.0100   -1.5886 H         1 <0>         0.0890
     28 H5         -6.2525   -7.2287   -1.7356 H         1 <0>         0.1448
     29 H6         -3.6060   -3.8875    0.8605 H         1 <0>         0.1164
     30 H7         -2.0932   -3.6379    1.7645 H         1 <0>         0.0900
     31 H8         -3.0961   -2.2411    1.3047 H         1 <0>         0.0756
     32 H9         -1.8588   -0.4857   -0.2143 H         1 <0>         0.2621
     33 H10         1.1156   -1.1632    1.4464 H         1 <0>         0.1644
     34 H11         3.0661    0.3247    1.5704 H         1 <0>         0.1376
     35 H12         3.2087    2.3105    0.1260 H         1 <0>         0.1334
     36 H13         1.4005    2.8255   -1.4540 H         1 <0>         0.1250
     37 H14        -0.0213    3.0941   -2.5839 H         1 <0>         0.2185
     38 H15        -1.5049    2.7043   -3.2693 H         1 <0>         0.2321
     39 H16        -4.1456   -9.5204   -1.3422 H         1 <0>         0.0988
     40 H17        -5.0025   -9.0396   -2.8264 H         1 <0>         0.0867
     41 H18        -3.2230   -9.0611   -2.7934 H         1 <0>         0.1063
@<TRIPOS>BOND
     1    1    2 1
     2    1   25 1
     3    1   26 1
     4    1   27 1
     5    2    7 ar
     6    2    3 ar
     7    3    4 ar
     8    3   28 1
     9    4    5 ar
    10    4   24 1
    11    5    6 ar
    12    6    7 ar
    13    6    8 1
    14    8    9 1
    15    9   10 1
    16    9   11 1
    17    9   12 1
    18   11   29 1
    19   11   30 1
    20   11   31 1
    21   12   13 2
    22   12   14 am
    23   14   15 1
    24   14   32 1
    25   15   20 ar
    26   15   16 ar
    27   16   17 ar
    28   16   33 1
    29   17   18 ar
    30   17   34 1
    31   18   19 ar
    32   18   35 1
    33   19   20 ar
    34   19   36 1
    35   20   21 1
    36   21   22 2
    37   21   23 am
    38   23   37 1
    39   23   38 1
    40   24   39 1
    41   24   40 1
    42   24   41 1
@<TRIPOS>MOLECULE
ZINC04517027
   43    45     0     0     0
SMALL
USER_CHARGES

@<TRIPOS>ATOM
      1 C1          4.2393   -3.6473   -2.3226 C.3       1 <0>        -0.1876
      2 C2          4.0072   -2.6516   -1.2154 C.2       1 <0>         0.1374
      3 C3          3.9512   -1.3186   -1.4028 C.2       1 <0>        -0.2712
      4 C4          3.7042   -0.7186   -0.0373 C.3       1 <0>         0.0911
      5 C5          2.3985    0.0230   -0.0213 C.ar      1 <0>        -0.0986
      6 C6          1.2075   -0.6795   -0.0139 C.ar      1 <0>        -0.0856
      7 C7          0.0021   -0.0041    0.0020 C.ar      1 <0>        -0.1420
      8 C8         -0.0167    1.3787    0.0096 C.ar      1 <0>        -0.0981
      9 C9          1.1689    2.0855    0.0021 C.ar      1 <0>        -0.1383
     10 C10         2.3831    1.4099   -0.0127 C.ar      1 <0>         0.1103
     11 O1          3.5398    2.1166   -0.0193 O.3       1 <0>        -0.1424
     12 C11         4.6935    1.5301    0.3408 C.2       1 <0>         0.3008
     13 C12         4.8378    0.1817    0.3523 C.2       1 <0>        -0.2668
     14 C13         6.0911   -0.3905    0.7428 C.1       1 <0>        -0.0595
     15 N1          7.0853   -0.8444    1.0525 N.1       1 <0>        -0.0795
     16 N2          5.7560    2.3177    0.7078 N.pl3     1 <0>        -0.3827
     17 C14         3.6402   -1.9183    0.8800 C.2       1 <0>         0.3236
     18 O2          3.4565   -1.9128    2.0785 O.2       1 <0>        -0.2914
     19 N3          3.8291   -2.9956    0.0921 N.am      1 <0>        -0.2672
     20 C15         3.8416   -4.3756    0.5835 C.3       1 <0>         0.0133
     21 C16         5.2476   -4.7598    0.9663 C.2       1 <0>        -0.2056
     22 C17         5.4984   -5.2120    2.1700 C.2       1 <0>        -0.1812
     23 C18         4.0934   -0.6229   -2.6269 C.2       1 <0>         0.3972
     24 O3          4.2903   -1.2389   -3.6575 O.2       1 <0>        -0.3899
     25 O4          4.0108    0.7238   -2.6511 O.3       1 <0>        -0.2561
     26 C19         4.1639    1.3604   -3.9212 C.3       1 <0>        -0.0529
     27 H1          5.3092   -3.8230   -2.4348 H         1 <0>         0.1118
     28 H2          3.7408   -4.5853   -2.0781 H         1 <0>         0.0812
     29 H3          3.8359   -3.2538   -3.2556 H         1 <0>         0.1404
     30 H4          1.2194   -1.7594   -0.0201 H         1 <0>         0.1370
     31 H5         -0.9260   -0.5564    0.0081 H         1 <0>         0.1361
     32 H6         -0.9593    1.9058    0.0170 H         1 <0>         0.1386
     33 H7          1.1529    3.1654    0.0080 H         1 <0>         0.1448
     34 H8          5.6676    3.2837    0.7047 H         1 <0>         0.2298
     35 H9          6.5954    1.9084    0.9702 H         1 <0>         0.2586
     36 H10         3.1926   -4.4568    1.4554 H         1 <0>         0.1170
     37 H11         3.4830   -5.0435   -0.1998 H         1 <0>         0.1001
     38 H12         6.0485   -4.6623    0.2484 H         1 <0>         0.1345
     39 H13         6.5060   -5.4873    2.4443 H         1 <0>         0.1212
     40 H14         4.6974   -5.3095    2.8879 H         1 <0>         0.1161
     41 H15         5.1442    1.1197   -4.3325 H         1 <0>         0.0784
     42 H16         3.3882    1.0071   -4.6006 H         1 <0>         0.0776
     43 H17         4.0761    2.4400   -3.7995 H         1 <0>         0.1000
@<TRIPOS>BOND
     1    1    2 1
     2    1   27 1
     3    1   28 1
     4    1   29 1
     5    2   19 1
     6    2    3 2
     7    3    4 1
     8    3   23 1
     9    4   13 1
    10    4    5 1
    11    4   17 1
    12    5   10 ar
    13    5    6 ar
    14    6    7 ar
    15    6   30 1
    16    7    8 ar
    17    7   31 1
    18    8    9 ar
    19    8   32 1
    20    9   10 ar
    21    9   33 1
    22   10   11 1
    23   11   12 1
    24   12   13 2
    25   12   16 1
    26   13   14 1
    27   14   15 3
    28   16   34 1
    29   16   35 1
    30   17   18 2
    31   17   19 am
    32   19   20 1
    33   20   21 1
    34   20   36 1
    35   20   37 1
    36   21   22 2
    37   21   38 1
    38   22   39 1
    39   22   40 1
    40   23   24 2
    41   23   25 1
    42   25   26 1
    43   26   41 1
    44   26   42 1
    45   26   43 1
@<TRIPOS>MOLECULE
ZINC04517096
   47    50     0     0     0
SMALL
USER_CHARGES

@<TRIPOS>ATOM
      1 C1          2.8592    3.0765   -2.1432 C.3       1 <0>        -0.2124
      2 C2          2.9655    3.5020   -0.6774 C.3       1 <0>        -0.0612
      3 C3          1.5963    3.3520   -0.0048 C.3       1 <0>        -0.1103
      4 C4          1.2320    1.8813    0.0004 C.2       1 <0>         0.0998
      5 C5          2.1873    0.9112   -0.0094 C.2       1 <0>        -0.2897
      6 C6          3.5642    1.1802   -0.0134 C.2       1 <0>         0.3024
      7 O1          4.3787    0.2795   -0.0498 O.2       1 <0>        -0.2974
      8 C7          4.0023    2.6279    0.0297 C.3       1 <0>        -0.1879
      9 C8          1.4638   -0.4029   -0.0151 C.3       1 <0>         0.1068
     10 C9          1.7935   -1.2035    1.2125 C.ar      1 <0>        -0.0976
     11 C10         1.2868   -0.8198    2.4407 C.ar      1 <0>        -0.0869
     12 C11         1.5828   -1.5519    3.5747 C.ar      1 <0>        -0.1432
     13 C12         2.3874   -2.6730    3.4848 C.ar      1 <0>        -0.0979
     14 C13         2.8970   -3.0606    2.2619 C.ar      1 <0>        -0.1361
     15 C14         2.6032   -2.3259    1.1196 C.ar      1 <0>         0.1133
     16 O2          3.1128   -2.7175   -0.0739 O.3       1 <0>        -0.1381
     17 C15         2.5660   -2.2788   -1.2196 C.2       1 <0>         0.3090
     18 C16         1.7715   -1.1811   -1.2599 C.2       1 <0>        -0.2737
     19 C17         1.2178   -0.7575   -2.5107 C.1       1 <0>        -0.0578
     20 N1          0.7785   -0.4215   -3.5030 N.1       1 <0>        -0.0873
     21 N2          2.8192   -2.9614   -2.3833 N.pl3     1 <0>        -0.3812
     22 C18         0.0021   -0.0041    0.0020 C.2       1 <0>         0.3226
     23 O3         -0.9565   -0.7465    0.0082 O.2       1 <0>        -0.2877
     24 N3         -0.0162    1.3447    0.0094 N.am      1 <0>        -0.2627
     25 C19        -1.2451    2.1422    0.0197 C.3       1 <0>         0.0982
     26 C20        -1.6496    2.4023    1.4110 C.1       1 <0>        -0.2073
     27 C21        -1.9723    2.6097    2.5205 C.1       1 <0>        -0.1676
     28 C22         3.4076    4.9650   -0.6054 C.3       1 <0>        -0.2031
     29 H1          2.1315    3.7079   -2.6529 H         1 <0>         0.0765
     30 H2          3.8318    3.1824   -2.6237 H         1 <0>         0.0840
     31 H3          2.5386    2.0362   -2.1972 H         1 <0>         0.0947
     32 H4          0.8482    3.9143   -0.5636 H         1 <0>         0.1005
     33 H5          1.6467    3.7222    1.0192 H         1 <0>         0.1120
     34 H6          4.8855    2.7203   -0.4301 H         1 <0>         0.1081
     35 H7          4.0979    2.9465    1.0677 H         1 <0>         0.1068
     36 H8          0.6584    0.0556    2.5139 H         1 <0>         0.1383
     37 H9          1.1852   -1.2484    4.5319 H         1 <0>         0.1347
     38 H10         2.6174   -3.2451    4.3715 H         1 <0>         0.1380
     39 H11         3.5254   -3.9362    2.1929 H         1 <0>         0.1457
     40 H12         2.4317   -2.6564   -3.2186 H         1 <0>         0.2577
     41 H13         3.3858   -3.7486   -2.3703 H         1 <0>         0.2312
     42 H14        -1.0680    3.0892   -0.4902 H         1 <0>         0.1110
     43 H15        -2.0370    1.5961   -0.4929 H         1 <0>         0.1369
     44 H16        -2.2608    2.7952    3.5129 H         1 <0>         0.2209
     45 H17         3.4783    5.2723    0.4380 H         1 <0>         0.0748
     46 H18         4.3812    5.0742   -1.0831 H         1 <0>         0.0852
     47 H19         2.6782    5.5907   -1.1198 H         1 <0>         0.0780
@<TRIPOS>BOND
     1    1    2 1
     2    1   29 1
     3    1   30 1
     4    1   31 1
     5    2    8 1
     6    2    3 1
     7    2   28 1
     8    3    4 1
     9    3   32 1
    10    3   33 1
    11    4   24 1
    12    4    5 2
    13    5    6 1
    14    5    9 1
    15    6    7 2
    16    6    8 1
    17    8   34 1
    18    8   35 1
    19    9   18 1
    20    9   10 1
    21    9   22 1
    22   10   15 ar
    23   10   11 ar
    24   11   12 ar
    25   11   36 1
    26   12   13 ar
    27   12   37 1
    28   13   14 ar
    29   13   38 1
    30   14   15 ar
    31   14   39 1
    32   15   16 1
    33   16   17 1
    34   17   18 2
    35   17   21 1
    36   18   19 1
    37   19   20 3
    38   21   40 1
    39   21   41 1
    40   22   23 2
    41   22   24 am
    42   24   25 1
    43   25   26 1
    44   25   42 1
    45   25   43 1
    46   26   27 3
    47   27   44 1
    48   28   45 1
    49   28   46 1
    50   28   47 1
@<TRIPOS>MOLECULE
ZINC04517145
   41    43     0     0     0
SMALL
USER_CHARGES

@<TRIPOS>ATOM
      1 C1          1.6957    5.1142   -2.2466 C.3       1 <0>        -0.1873
      2 C2          1.4966    4.0976   -1.1522 C.2       1 <0>         0.1389
      3 C3          1.4853    2.7658   -1.3562 C.2       1 <0>        -0.2682
      4 C4          1.2584    2.1408    0.0015 C.3       1 <0>         0.0920
      5 C5          2.4274    1.2778    0.3812 C.ar      1 <0>        -0.0997
      6 C6          3.6215    1.8637    0.7597 C.ar      1 <0>        -0.0858
      7 C7          4.7021    1.0765    1.1093 C.ar      1 <0>        -0.1418
      8 C8          4.5922   -0.3018    1.0818 C.ar      1 <0>        -0.0977
      9 C9          3.4028   -0.8924    0.7051 C.ar      1 <0>        -0.1381
     10 C10         2.3140   -0.1042    0.3529 C.ar      1 <0>         0.1110
     11 O1          1.1523   -0.6977   -0.0152 O.3       1 <0>        -0.1424
     12 C11         0.0021   -0.0041    0.0020 C.2       1 <0>         0.3010
     13 C12        -0.0163    1.3518    0.0095 C.2       1 <0>        -0.2669
     14 C13        -1.2720    2.0402    0.0191 C.1       1 <0>        -0.0606
     15 N1         -2.2680    2.5863    0.0268 N.1       1 <0>        -0.0772
     16 N2         -1.1885   -0.6872    0.0119 N.pl3     1 <0>        -0.3824
     17 C14         1.1541    3.3262    0.9337 C.2       1 <0>         0.3239
     18 O2          0.9707    3.2996    2.1319 O.2       1 <0>        -0.2877
     19 N3          1.3068    4.4189    0.1594 N.am      1 <0>        -0.2701
     20 C15         1.2733    5.7924    0.6681 C.3       1 <0>         0.1042
     21 C16        -0.1092    6.2964    0.6292 C.1       1 <0>        -0.2177
     22 C17        -1.2118    6.6984    0.5983 C.1       1 <0>        -0.1478
     23 C18         1.6514    2.0906   -2.5888 C.2       1 <0>         0.3970
     24 O3          1.8276    2.7258   -3.6115 O.2       1 <0>        -0.3886
     25 O4          1.6144    0.7424   -2.6298 O.3       1 <0>        -0.2560
     26 C19         1.7893    0.1272   -3.9076 C.3       1 <0>        -0.0529
     27 H1          0.7283    5.3916   -2.6653 H         1 <0>         0.1156
     28 H2          2.1813    5.9995   -1.8362 H         1 <0>         0.0800
     29 H3          2.3216    4.6868   -3.0300 H         1 <0>         0.1400
     30 H4          3.7100    2.9398    0.7817 H         1 <0>         0.1362
     31 H5          5.6331    1.5379    1.4038 H         1 <0>         0.1363
     32 H6          5.4373   -0.9162    1.3551 H         1 <0>         0.1389
     33 H7          3.3182   -1.9689    0.6847 H         1 <0>         0.1451
     34 H8         -2.0271   -0.1999    0.0241 H         1 <0>         0.2588
     35 H9         -1.1912   -1.6571    0.0068 H         1 <0>         0.2299
     36 H10         1.6371    5.8084    1.6954 H         1 <0>         0.1304
     37 H11         1.9083    6.4251    0.0479 H         1 <0>         0.1100
     38 H12        -2.1979    7.0580    0.5706 H         1 <0>         0.2228
     39 H13         1.0023    0.4625   -4.5831 H         1 <0>         0.0787
     40 H14         2.7610    0.4060   -4.3152 H         1 <0>         0.0777
     41 H15         1.7380   -0.9562   -3.7994 H         1 <0>         0.1002
@<TRIPOS>BOND
     1    1    2 1
     2    1   27 1
     3    1   28 1
     4    1   29 1
     5    2   19 1
     6    2    3 2
     7    3    4 1
     8    3   23 1
     9    4   13 1
    10    4    5 1
    11    4   17 1
    12    5   10 ar
    13    5    6 ar
    14    6    7 ar
    15    6   30 1
    16    7    8 ar
    17    7   31 1
    18    8    9 ar
    19    8   32 1
    20    9   10 ar
    21    9   33 1
    22   10   11 1
    23   11   12 1
    24   12   13 2
    25   12   16 1
    26   13   14 1
    27   14   15 3
    28   16   34 1
    29   16   35 1
    30   17   18 2
    31   17   19 am
    32   19   20 1
    33   20   21 1
    34   20   36 1
    35   20   37 1
    36   21   22 3
    37   22   38 1
    38   23   24 2
    39   23   25 1
    40   25   26 1
    41   26   39 1
    42   26   40 1
    43   26   41 1
@<TRIPOS>MOLECULE
ZINC04531388
   38    40     0     0     0
SMALL
USER_CHARGES

@<TRIPOS>ATOM
      1 C1         -2.8875    4.6688    2.0759 C.3       1 <0>        -0.0513
      2 N1         -2.5837    3.2392    1.9747 N.am      1 <0>        -0.2398
      3 C2         -2.8399    2.3996    3.0483 C.2       1 <0>         0.0912
      4 C3         -2.5419    1.0450    2.9257 C.2       1 <0>        -0.2385
      5 C4         -1.9897    0.5692    1.7143 C.2       1 <0>         0.3838
      6 O1         -1.7198   -0.6109    1.5818 O.2       1 <0>        -0.3570
      7 N2         -1.7648    1.4381    0.7070 N.am      1 <0>        -0.2958
      8 C5         -2.0526    2.7440    0.8413 C.2       1 <0>         0.4095
      9 O2         -1.8316    3.4973   -0.0873 O.2       1 <0>        -0.3754
     10 C6         -1.1923    0.9515   -0.5507 C.3       1 <0>        -0.0550
     11 N3         -2.8916    0.4573    4.1216 N.pl3     1 <0>        -0.1046
     12 H1         -2.8032   -0.5102    4.3586 H         1 <0>         0.2883
     13 C7         -3.3811    1.4474    4.9196 C.2       1 <0>         0.0596
     14 N4         -3.3424    2.5925    4.2657 N.2       1 <0>        -0.1726
     15 C8         -3.8766    1.2672    6.2979 C.2       1 <0>         0.1671
     16 N5         -3.8673    0.0731    6.8492 N.2       1 <0>        -0.1364
     17 C9         -4.4374   -0.1171    8.0697 C.ar      1 <0>        -0.1045
     18 C10        -5.7455    0.3167    8.3114 C.ar      1 <0>        -0.0863
     19 C11        -6.3162    0.1205    9.5503 C.ar      1 <0>        -0.1820
     20 C12        -5.6016   -0.5050   10.5593 C.ar      1 <0>        -0.0714
     21 C13        -4.3089   -0.9391   10.3366 C.ar      1 <0>        -0.2106
     22 C14        -3.7179   -0.7562    9.0952 C.ar      1 <0>         0.1517
     23 N6         -2.4170   -1.1983    8.8671 N.pl3     1 <0>        -0.4024
     24 C15        -4.3678    2.3923    7.0351 C.1       1 <0>        -0.1730
     25 C16        -4.7704    3.3148    7.6395 C.1       1 <0>        -0.1215
     26 H2         -2.0173    5.1985    2.4636 H         1 <0>         0.0859
     27 H3         -3.1396    5.0574    1.0893 H         1 <0>         0.1113
     28 H4         -3.7314    4.8141    2.7502 H         1 <0>         0.1039
     29 H5         -1.0200   -0.1225   -0.4800 H         1 <0>         0.1197
     30 H6         -0.2467    1.4595   -0.7400 H         1 <0>         0.0955
     31 H7         -1.8843    1.1555   -1.3678 H         1 <0>         0.0955
     32 H8         -6.3069    0.8048    7.5284 H         1 <0>         0.1401
     33 H9         -7.3260    0.4558    9.7356 H         1 <0>         0.1325
     34 H10        -6.0583   -0.6545   11.5265 H         1 <0>         0.1309
     35 H11        -3.7595   -1.4256   11.1289 H         1 <0>         0.1345
     36 H12        -2.0049   -1.0657    7.9991 H         1 <0>         0.2310
     37 H13        -1.9232   -1.6388    9.5763 H         1 <0>         0.2216
     38 H14        -5.1305    4.1398    8.1800 H         1 <0>         0.2245
@<TRIPOS>BOND
     1    1    2 1
     2    1   26 1
     3    1   27 1
     4    1   28 1
     5    2    8 am
     6    2    3 1
     7    3   14 1
     8    3    4 2
     9    4    5 1
    10    4   11 1
    11    5    6 2
    12    5    7 am
    13    7    8 am
    14    7   10 1
    15    8    9 2
    16   10   29 1
    17   10   30 1
    18   10   31 1
    19   11   12 1
    20   11   13 1
    21   13   14 2
    22   13   15 1
    23   15   16 2
    24   15   24 1
    25   16   17 1
    26   17   22 ar
    27   17   18 ar
    28   18   19 ar
    29   18   32 1
    30   19   20 ar
    31   19   33 1
    32   20   21 ar
    33   20   34 1
    34   21   22 ar
    35   21   35 1
    36   22   23 1
    37   23   36 1
    38   23   37 1
    39   24   25 3
    40   25   38 1
@<TRIPOS>MOLECULE
ZINC04618467
   36    38     0     0     0
SMALL
USER_CHARGES

@<TRIPOS>ATOM
      1 C1         -1.3496    0.4128    0.9757 C.3       1 <0>        -0.0655
      2 O1         -0.5438   -0.6609    0.4860 O.3       1 <0>        -0.1993
      3 C2          0.5964   -0.9401    1.1726 C.ar      1 <0>         0.0600
      4 C3          0.9289   -0.1982    2.2890 C.ar      1 <0>        -0.1815
      5 C4          2.1034   -0.4890    2.9937 C.ar      1 <0>        -0.0629
      6 C5          2.9339   -1.5305    2.5621 C.ar      1 <0>        -0.0772
      7 C6          2.5937   -2.2649    1.4473 C.ar      1 <0>        -0.1280
      8 C7          1.4260   -1.9789    0.7526 C.ar      1 <0>         0.0676
      9 O2          1.0933   -2.7106   -0.3428 O.3       1 <0>        -0.2755
     10 C8          2.4634    0.2961    4.1813 C.2       1 <0>         0.0305
     11 C9          2.9951   -0.3208    5.2672 C.2       1 <0>        -0.3183
     12 C10         3.1548   -1.7618    5.5404 C.2       1 <0>         0.3370
     13 O3          2.7894   -2.6050    4.7423 O.2       1 <0>        -0.3103
     14 N1          3.7126   -2.0957    6.6919 N.am      1 <0>        -0.3041
     15 C11         4.1197   -1.1262    7.5823 C.2       1 <0>         0.0248
     16 N2          4.6855   -1.2824    8.7582 N.2       1 <0>        -0.1676
     17 C12         5.0221   -0.1872    9.5065 C.ar      1 <0>        -0.0496
     18 C13         4.7310   -0.1432   10.8760 C.ar      1 <0>        -0.0750
     19 C14         5.0923    0.9871   11.5869 C.ar      1 <0>        -0.1789
     20 C15         5.7236    2.0281   10.9294 C.ar      1 <0>        -0.0521
     21 N3          5.9852    1.9599    9.6384 N.ar      1 <0>        -0.1480
     22 C16         5.6671    0.9035    8.9190 C.ar      1 <0>        -0.0760
     23 S1          3.6969    0.3941    6.7470 S.3       1 <0>         0.2024
     24 H1         -0.7695    1.3355    0.9676 H         1 <0>         0.0638
     25 H2         -2.2262    0.5292    0.3384 H         1 <0>         0.1113
     26 H3         -1.6679    0.1927    1.9947 H         1 <0>         0.0700
     27 H4          0.2847    0.6038    2.6178 H         1 <0>         0.1395
     28 H5          3.8408   -1.7577    3.1027 H         1 <0>         0.1453
     29 H6          3.2347   -3.0682    1.1155 H         1 <0>         0.1496
     30 H7          1.4438   -2.3584   -1.1723 H         1 <0>         0.2267
     31 H8          2.3050    1.3644    4.1908 H         1 <0>         0.1521
     32 H9          3.8367   -3.0323    6.9117 H         1 <0>         0.2606
     33 H10         4.2369   -0.9702   11.3642 H         1 <0>         0.1517
     34 H11         4.8836    1.0564   12.6442 H         1 <0>         0.1425
     35 H12         6.0066    2.9115   11.4825 H         1 <0>         0.1617
     36 H13         5.9025    0.8825    7.8652 H         1 <0>         0.1731
@<TRIPOS>BOND
     1    1    2 1
     2    1   24 1
     3    1   25 1
     4    1   26 1
     5    2    3 1
     6    3    8 ar
     7    3    4 ar
     8    4    5 ar
     9    4   27 1
    10    5    6 ar
    11    5   10 1
    12    6    7 ar
    13    6   28 1
    14    7    8 ar
    15    7   29 1
    16    8    9 1
    17    9   30 1
    18   10   11 2
    19   10   31 1
    20   11   23 1
    21   11   12 1
    22   12   13 2
    23   12   14 am
    24   14   15 1
    25   14   32 1
    26   15   16 2
    27   15   23 1
    28   16   17 1
    29   17   22 ar
    30   17   18 ar
    31   18   19 ar
    32   18   33 1
    33   19   20 ar
    34   19   34 1
    35   20   21 ar
    36   20   35 1
    37   21   22 ar
    38   22   36 1
@<TRIPOS>MOLECULE
ZINC04618623
   44    46     0     0     0
SMALL
USER_CHARGES

@<TRIPOS>ATOM
      1 C1         -4.2231    4.9636    2.4530 C.3       1 <0>        -0.2461
      2 C2         -3.1814    5.7829    1.6884 C.3       1 <0>         0.1078
      3 C3         -2.8340    7.0401    2.4882 C.3       1 <0>        -0.2019
      4 C4         -3.7492    6.1857    0.3260 C.3       1 <0>        -0.2463
      5 O1         -1.9836    4.9848    1.4968 O.3       1 <0>        -0.2760
      6 C5         -2.1181    3.8364    0.8070 C.2       1 <0>         0.4101
      7 O2         -3.2067    3.5100    0.3769 O.2       1 <0>        -0.4017
      8 N1         -1.0454    3.0489    0.5936 N.am      1 <0>        -0.3824
      9 C6         -1.2102    1.7478   -0.0593 C.3       1 <0>         0.1896
     10 C7         -1.7380    1.9306   -1.4599 C.ar      1 <0>        -0.1531
     11 C8         -1.2360    2.5850   -2.5680 C.ar      1 <0>        -0.0573
     12 C9         -1.9833    2.5690   -3.7380 C.ar      1 <0>        -0.1893
     13 C10        -3.1956    1.9031   -3.7528 C.ar      1 <0>        -0.0254
     14 N2         -3.6470    1.2875   -2.6810 N.ar      1 <0>        -0.1280
     15 C11        -2.9648    1.2784   -1.5383 C.ar      1 <0>         0.0988
     16 C12        -3.2778    0.6596   -0.2240 C.ar      1 <0>         0.0915
     17 C13        -2.2451    0.9282    0.6692 C.ar      1 <0>        -0.1289
     18 C14        -2.3149    0.4507    1.9635 C.ar      1 <0>        -0.0489
     19 C15        -3.4289   -0.2907    2.3336 C.ar      1 <0>        -0.1872
     20 C16        -4.4226   -0.5235    1.3999 C.ar      1 <0>        -0.0280
     21 N3         -4.3274   -0.0556    0.1738 N.ar      1 <0>        -0.1282
     22 C17         0.1054    1.0134   -0.0918 C.2       1 <0>         0.3057
     23 O3          0.1269   -0.1962   -0.0057 O.2       1 <0>        -0.3089
     24 N4          1.2576    1.7003   -0.2222 N.am      1 <0>        -0.3350
     25 N5          2.4545    1.0454   -0.1548 N.3       1 <0>        -0.2097
     26 H1         -3.8186    4.6766    3.4236 H         1 <0>         0.0774
     27 H2         -5.1223    5.5627    2.5969 H         1 <0>         0.0843
     28 H3         -4.4706    4.0680    1.8833 H         1 <0>         0.1233
     29 H4         -2.0919    7.6237    1.9434 H         1 <0>         0.0836
     30 H5         -3.7332    7.6392    2.6320 H         1 <0>         0.0928
     31 H6         -2.4296    6.7531    3.4588 H         1 <0>         0.0845
     32 H7         -3.9966    5.2901   -0.2438 H         1 <0>         0.1231
     33 H8         -4.6484    6.7848    0.4698 H         1 <0>         0.0846
     34 H9         -3.0070    6.7694   -0.2187 H         1 <0>         0.0765
     35 H10        -0.1643    3.3436    0.8722 H         1 <0>         0.2265
     36 H11        -0.2855    3.0960   -2.5254 H         1 <0>         0.1321
     37 H12        -1.6231    3.0699   -4.6244 H         1 <0>         0.1416
     38 H13        -3.7813    1.8872   -4.6600 H         1 <0>         0.1646
     39 H14        -1.5228    0.6494    2.6702 H         1 <0>         0.1370
     40 H15        -3.5185   -0.6802    3.3370 H         1 <0>         0.1410
     41 H16        -5.2915   -1.0995    1.6820 H         1 <0>         0.1634
     42 H17         1.2369    2.6596   -0.3638 H         1 <0>         0.2211
     43 H18         3.2247    1.6871   -0.2690 H         1 <0>         0.1588
     44 H19         2.5373    0.5313    0.7094 H         1 <0>         0.1625
@<TRIPOS>BOND
     1    1    2 1
     2    1   26 1
     3    1   27 1
     4    1   28 1
     5    2    3 1
     6    2    4 1
     7    2    5 1
     8    3   29 1
     9    3   30 1
    10    3   31 1
    11    4   32 1
    12    4   33 1
    13    4   34 1
    14    5    6 1
    15    6    7 2
    16    6    8 am
    17    8    9 1
    18    8   35 1
    19    9   17 1
    20    9   10 1
    21    9   22 1
    22   10   15 ar
    23   10   11 ar
    24   11   12 ar
    25   11   36 1
    26   12   13 ar
    27   12   37 1
    28   13   14 ar
    29   13   38 1
    30   14   15 ar
    31   15   16 1
    32   16   21 ar
    33   16   17 ar
    34   17   18 ar
    35   18   19 ar
    36   18   39 1
    37   19   20 ar
    38   19   40 1
    39   20   21 ar
    40   20   41 1
    41   22   23 2
    42   22   24 am
    43   24   25 1
    44   24   42 1
    45   25   43 1
    46   25   44 1
@<TRIPOS>MOLECULE
ZINC04622860
   45    47     0     0     0
SMALL
USER_CHARGES

@<TRIPOS>ATOM
      1 C1          3.4005    8.0916   -6.4861 C.3       1 <0>        -0.1735
      2 C2          3.3057    9.3527   -5.6665 C.ar      1 <0>        -0.0598
      3 C3          3.5648   10.5784   -6.2524 C.ar      1 <0>        -0.1455
      4 C4          3.4798   11.7376   -5.5037 C.ar      1 <0>        -0.1069
      5 C5          3.1355   11.6748   -4.1675 C.ar      1 <0>        -0.1218
      6 C6          2.8742   10.4459   -3.5764 C.ar      1 <0>         0.0679
      7 C7          2.9657    9.2827   -4.3300 C.ar      1 <0>        -0.1319
      8 N1          2.5252   10.3788   -2.2230 N.am      1 <0>        -0.3220
      9 C8          1.8182    9.3287   -1.7607 C.2       1 <0>         0.2800
     10 O1          1.4013    8.4912   -2.5326 O.2       1 <0>        -0.3400
     11 C9          1.5456    9.1950   -0.2846 C.3       1 <0>        -0.0292
     12 N2          0.7648    7.9797   -0.0402 N.am      1 <0>        -0.3302
     13 C10        -0.6991    8.0339   -0.0563 C.3       1 <0>        -0.0746
     14 C11         1.3934    6.8118    0.1995 C.2       1 <0>         0.3666
     15 O2          2.6041    6.7838    0.3064 O.2       1 <0>        -0.3662
     16 C12         0.6113    5.5661    0.3322 C.ar      1 <0>        -0.1441
     17 C13        -0.7046    5.6150    0.8114 C.ar      1 <0>        -0.1145
     18 C14        -1.4373    4.4712    0.9386 C.ar      1 <0>        -0.1397
     19 C15        -0.8821    3.2441    0.5924 C.ar      1 <0>        -0.0334
     20 C16         0.4375    3.1766    0.1091 C.ar      1 <0>        -0.0619
     21 C17         1.1831    4.3475   -0.0194 C.ar      1 <0>         0.0047
     22 N3          0.7004    1.8676   -0.1425 N.2       1 <0>        -0.1629
     23 C18        -0.3447    1.1499    0.1478 C.2       1 <0>        -0.0296
     24 N4         -1.3503    1.9481    0.5993 N.pl3     1 <0>        -0.2245
     25 H1         -2.2612    1.6492    0.8837 H         1 <0>         0.2540
     26 C19         3.0430   12.9388   -3.3522 C.3       1 <0>        -0.1723
     27 H2          4.4156    7.6983   -6.4315 H         1 <0>         0.0854
     28 H3          2.7025    7.3511   -6.0955 H         1 <0>         0.0892
     29 H4          3.1520    8.3132   -7.5240 H         1 <0>         0.0785
     30 H5          3.8346   10.6301   -7.2969 H         1 <0>         0.1287
     31 H6          3.6831   12.6932   -5.9641 H         1 <0>         0.1293
     32 H7          2.7677    8.3249   -3.8719 H         1 <0>         0.1755
     33 H8          2.7920   11.0882   -1.6176 H         1 <0>         0.2317
     34 H9          0.9844   10.0631    0.0613 H         1 <0>         0.1011
     35 H10         2.4905    9.1346    0.2554 H         1 <0>         0.1377
     36 H11        -1.0668    8.2224    0.9523 H         1 <0>         0.0653
     37 H12        -1.0257    8.8362   -0.7180 H         1 <0>         0.0856
     38 H13        -1.0939    7.0835   -0.4153 H         1 <0>         0.1135
     39 H14        -1.1417    6.5648    1.0824 H         1 <0>         0.1519
     40 H15        -2.4507    4.5188    1.3089 H         1 <0>         0.1273
     41 H16         2.1970    4.3090   -0.3895 H         1 <0>         0.1674
     42 H17        -0.4071    0.0769    0.0416 H         1 <0>         0.2044
     43 H18         4.0130   13.1538   -2.9038 H         1 <0>         0.0814
     44 H19         2.7496   13.7668   -3.9975 H         1 <0>         0.0865
     45 H20         2.2996   12.8102   -2.5655 H         1 <0>         0.0708
@<TRIPOS>BOND
     1    1    2 1
     2    1   27 1
     3    1   28 1
     4    1   29 1
     5    2    7 ar
     6    2    3 ar
     7    3    4 ar
     8    3   30 1
     9    4    5 ar
    10    4   31 1
    11    5    6 ar
    12    5   26 1
    13    6    7 ar
    14    6    8 1
    15    7   32 1
    16    8    9 am
    17    8   33 1
    18    9   10 2
    19    9   11 1
    20   11   12 1
    21   11   34 1
    22   11   35 1
    23   12   13 1
    24   12   14 am
    25   13   36 1
    26   13   37 1
    27   13   38 1
    28   14   15 2
    29   14   16 1
    30   16   21 ar
    31   16   17 ar
    32   17   18 ar
    33   17   39 1
    34   18   19 ar
    35   18   40 1
    36   19   24 1
    37   19   20 ar
    38   20   21 ar
    39   20   22 1
    40   21   41 1
    41   22   23 2
    42   23   24 1
    43   23   42 1
    44   24   25 1
    45   26   43 1
    46   26   44 1
    47   26   45 1
@<TRIPOS>MOLECULE
ZINC04627346
   42    43     0     0     0
SMALL
USER_CHARGES

@<TRIPOS>ATOM
      1 C1          0.4071    0.0922    0.2806 C.3       1 <0>        -0.2085
      2 C2         -0.2376    1.1467    1.1825 C.3       1 <0>        -0.0198
      3 C3          0.5070    2.4743    1.0277 C.3       1 <0>        -0.2001
      4 C4         -1.7023    1.3337    0.7820 C.3       1 <0>        -0.2023
      5 C5         -0.1632    0.6934    2.6178 C.ar      1 <0>        -0.0310
      6 C6          0.4214   -0.5186    2.9280 C.ar      1 <0>        -0.1169
      7 C7          0.4982   -0.9395    4.2405 C.ar      1 <0>        -0.1096
      8 C8         -0.0256   -0.1453    5.2641 C.ar      1 <0>        -0.0028
      9 C9         -0.6218    1.0765    4.9577 C.ar      1 <0>        -0.1940
     10 C10        -0.6910    1.4976    3.6307 C.ar      1 <0>         0.0427
     11 N1         -1.2757    2.6970    3.3206 N.2       1 <0>        -0.2765
     12 C11        -1.2609    3.6785    4.1910 C.2       1 <0>         0.2751
     13 N2         -2.0319    4.7998    3.9778 N.pl3     1 <0>        -0.2433
     14 C12        -2.9191    4.8273    2.9540 C.1       1 <0>        -0.0005
     15 N3         -3.6629    4.8504    2.0957 N.1       1 <0>        -0.0252
     16 N4         -0.4763    3.5880    5.3150 N.pl3     1 <0>        -0.3339
     17 C13        -0.5959    4.5427    6.3301 C.ar      1 <0>        -0.0119
     18 C14         0.5270    4.9679    7.0363 C.ar      1 <0>        -0.1226
     19 C15         0.3586    5.9189    8.0291 C.ar      1 <0>        -0.1540
     20 C16        -0.9095    6.4036    8.2919 C.ar      1 <0>        -0.0629
     21 N5         -1.9533    5.9764    7.6088 N.ar      1 <0>        -0.1309
     22 C17        -1.8367    5.0764    6.6527 C.ar      1 <0>        -0.1029
     23 C18         0.0496   -0.5862    6.6244 C.1       1 <0>        -0.0916
     24 N6          0.1093   -0.9359    7.7036 N.1       1 <0>        -0.0388
     25 H1         -0.1233   -0.8536    0.3909 H         1 <0>         0.0758
     26 H2          1.4506   -0.0411    0.5660 H         1 <0>         0.0715
     27 H3          0.3534    0.4200   -0.7575 H         1 <0>         0.0807
     28 H4          0.4533    2.8021   -0.0104 H         1 <0>         0.0768
     29 H5          0.0477    3.2255    1.6702 H         1 <0>         0.0934
     30 H6          1.5505    2.3410    1.3131 H         1 <0>         0.0658
     31 H7         -2.2328    0.3879    0.8923 H         1 <0>         0.0712
     32 H8         -2.1616    2.0849    1.4245 H         1 <0>         0.1123
     33 H9         -1.7561    1.6615   -0.2562 H         1 <0>         0.0727
     34 H10         0.8239   -1.1384    2.1405 H         1 <0>         0.1495
     35 H11         0.9605   -1.8866    4.4764 H         1 <0>         0.1412
     36 H12        -1.0286    1.6941    5.7448 H         1 <0>         0.1531
     37 H13        -1.9398    5.5697    4.5606 H         1 <0>         0.2764
     38 H14         0.1607    2.8619    5.4046 H         1 <0>         0.2810
     39 H15         1.5053    4.5689    6.8125 H         1 <0>         0.1484
     40 H16         1.2073    6.2745    8.5945 H         1 <0>         0.1479
     41 H17        -1.0470    7.1422    9.0678 H         1 <0>         0.1691
     42 H18        -2.7149    4.7512    6.1147 H         1 <0>         0.1753
@<TRIPOS>BOND
     1    1    2 1
     2    1   25 1
     3    1   26 1
     4    1   27 1
     5    2    3 1
     6    2    4 1
     7    2    5 1
     8    3   28 1
     9    3   29 1
    10    3   30 1
    11    4   31 1
    12    4   32 1
    13    4   33 1
    14    5   10 ar
    15    5    6 ar
    16    6    7 ar
    17    6   34 1
    18    7    8 ar
    19    7   35 1
    20    8    9 ar
    21    8   23 1
    22    9   10 ar
    23    9   36 1
    24   10   11 1
    25   11   12 2
    26   12   13 1
    27   12   16 1
    28   13   14 1
    29   13   37 1
    30   14   15 3
    31   16   17 1
    32   16   38 1
    33   17   22 ar
    34   17   18 ar
    35   18   19 ar
    36   18   39 1
    37   19   20 ar
    38   19   40 1
    39   20   21 ar
    40   20   41 1
    41   21   22 ar
    42   22   42 1
    43   23   24 3
@<TRIPOS>MOLECULE
ZINC04633254
   41    44     0     0     0
SMALL
USER_CHARGES

@<TRIPOS>ATOM
      1 C1         12.0416    1.8438    0.2331 C.3       1 <0>        -0.0637
      2 O1         11.1740    1.4680   -0.8384 O.3       1 <0>        -0.2110
      3 C2          9.8628    1.8069   -0.7188 C.ar      1 <0>         0.1062
      4 C3          8.9658    1.4725   -1.7229 C.ar      1 <0>        -0.1552
      5 C4          7.6341    1.8168   -1.6021 C.ar      1 <0>        -0.0683
      6 C5          7.1929    2.4978   -0.4756 C.ar      1 <0>         0.0071
      7 C6          8.0919    2.8368    0.5264 C.ar      1 <0>        -0.0565
      8 C7          9.4224    2.4874    0.4071 C.ar      1 <0>        -0.2168
      9 N1          5.8403    2.8483   -0.3527 N.am      1 <0>        -0.2775
     10 C8          4.9123    1.8765   -0.2177 C.2       1 <0>         0.3538
     11 O2          5.2290    0.7021   -0.2013 O.2       1 <0>        -0.3126
     12 C9          3.4976    2.2889   -0.0910 C.2       1 <0>        -0.1821
     13 C10         2.4836    1.3598    0.0505 C.2       1 <0>         0.0740
     14 C11         1.1173    1.8044    0.3252 C.2       1 <0>         0.0029
     15 N2          0.0246    1.5418   -0.4657 N.pl3     1 <0>        -0.2028
     16 H1          0.0190    1.0181   -1.3176 H         1 <0>         0.2593
     17 C12        -1.0599    2.1359    0.1367 C.ar      1 <0>        -0.0374
     18 C13        -2.4102    2.2247   -0.1791 C.ar      1 <0>        -0.1321
     19 C14        -3.2631    2.9131    0.6553 C.ar      1 <0>        -0.1016
     20 C15        -2.7846    3.5197    1.8113 C.ar      1 <0>        -0.1460
     21 C16        -1.4655    3.4397    2.1462 C.ar      1 <0>        -0.0628
     22 C17        -0.5730    2.7489    1.3112 C.ar      1 <0>        -0.0524
     23 N3          0.7467    2.5162    1.3669 N.2       1 <0>        -0.1228
     24 C18         3.2179    3.7356   -0.1287 C.2       1 <0>         0.2562
     25 N4          4.2335    4.5693   -0.2615 N.2       1 <0>        -0.3287
     26 C19         5.4903    4.1425   -0.3715 C.2       1 <0>         0.3738
     27 O3          6.3711    4.9744   -0.4958 O.2       1 <0>        -0.3021
     28 O4          1.9542    4.1975   -0.0253 O.3       1 <0>        -0.2108
     29 H2         12.0285    2.9276    0.3481 H         1 <0>         0.0708
     30 H3         11.7014    1.3762    1.1571 H         1 <0>         0.0687
     31 H4         13.0566    1.5142    0.0114 H         1 <0>         0.1084
     32 H5          9.3091    0.9424   -2.5990 H         1 <0>         0.1474
     33 H6          6.9360    1.5568   -2.3840 H         1 <0>         0.1399
     34 H7          7.7500    3.3702    1.4011 H         1 <0>         0.1430
     35 H8         10.1212    2.7475    1.1885 H         1 <0>         0.1400
     36 H9          2.7002    0.3058   -0.0417 H         1 <0>         0.1761
     37 H10        -2.7893    1.7562   -1.0752 H         1 <0>         0.1299
     38 H11        -4.3125    2.9819    0.4096 H         1 <0>         0.1363
     39 H12        -3.4671    4.0549    2.4548 H         1 <0>         0.1370
     40 H13        -1.1058    3.9166    3.0459 H         1 <0>         0.1453
     41 H14         1.8835    5.1613   -0.0618 H         1 <0>         0.2669
@<TRIPOS>BOND
     1    1    2 1
     2    1   29 1
     3    1   30 1
     4    1   31 1
     5    2    3 1
     6    3    8 ar
     7    3    4 ar
     8    4    5 ar
     9    4   32 1
    10    5    6 ar
    11    5   33 1
    12    6    7 ar
    13    6    9 1
    14    7    8 ar
    15    7   34 1
    16    8   35 1
    17    9   26 am
    18    9   10 am
    19   10   11 2
    20   10   12 1
    21   12   13 2
    22   12   24 1
    23   13   14 1
    24   13   36 1
    25   14   23 2
    26   14   15 1
    27   15   16 1
    28   15   17 1
    29   17   22 ar
    30   17   18 ar
    31   18   19 ar
    32   18   37 1
    33   19   20 ar
    34   19   38 1
    35   20   21 ar
    36   20   39 1
    37   21   22 ar
    38   21   40 1
    39   22   23 1
    40   24   25 2
    41   24   28 1
    42   25   26 1
    43   26   27 2
    44   28   41 1
@<TRIPOS>MOLECULE
ZINC03890841
   40    42     0     0     0
SMALL
USER_CHARGES

CORINA 3.20 0003  11.05.2005
@<TRIPOS>ATOM
      1 C1         -2.5286    1.0005   -0.0089 C.3       1 <0>        -0.1692
      2 C2         -1.2309    1.7668   -0.0011 C.2       1 <0>         0.0552
      3 C3         -0.0120    1.0765   -0.0097 C.2       1 <0>        -0.2506
      4 C4          1.1498    1.7770   -0.0078 C.2       1 <0>         0.0910
      5 N1          1.1035    3.1405    0.0078 N.pl3     1 <0>        -0.0745
      6 C5         -0.1072    3.7781    0.0212 C.2       1 <0>         0.1049
      7 N2         -1.2457    3.0806    0.0191 N.2       1 <0>        -0.1120
      8 C6          0.1615    5.1564    0.0357 C.2       1 <0>        -0.2037
      9 C7          1.5563    5.3041    0.0305 C.2       1 <0>        -0.0676
     10 N3          2.1062    4.1161    0.0141 N.2       1 <0>        -0.1113
     11 C8         -0.8339    6.2424    0.0539 C.2       1 <0>         0.1666
     12 N4         -2.1082    5.9597    0.0577 N.2       1 <0>        -0.1289
     13 O1         -2.9312    6.8575    0.0728 O.3       1 <0>        -0.1709
     14 C9         -4.2275    6.4977    0.0758 C.2       1 <0>         0.4061
     15 O2         -4.5317    5.3211    0.0638 O.2       1 <0>        -0.3523
     16 N5         -5.1889    7.4422    0.0922 N.am      1 <0>        -0.3173
     17 C10        -6.5351    7.0719   -0.0023 C.ar      1 <0>         0.0787
     18 C11        -7.4342    7.8843   -0.6805 C.ar      1 <0>        -0.1606
     19 C12        -8.7612    7.5135   -0.7764 C.ar      1 <0>        -0.1130
     20 C13        -9.1970    6.3401   -0.1886 C.ar      1 <0>        -0.1445
     21 C14        -8.3053    5.5318    0.4923 C.ar      1 <0>        -0.1127
     22 C15        -6.9759    5.8942    0.5869 C.ar      1 <0>        -0.1255
     23 N6         -0.4179    7.5624    0.0670 N.pl3     1 <0>        -0.4429
     24 C16         2.4743    1.0583   -0.0221 C.3       1 <0>        -0.1817
     25 H1         -2.8407    0.8042    1.0169 H         1 <0>         0.1025
     26 H2         -3.2943    1.5879   -0.5156 H         1 <0>         0.1214
     27 H3         -2.3893    0.0553   -0.5335 H         1 <0>         0.0836
     28 H4          0.0027   -0.0033   -0.0223 H         1 <0>         0.1592
     29 H5          2.0891    6.2435    0.0390 H         1 <0>         0.1879
     30 H6         -4.9477    8.3785    0.1694 H         1 <0>         0.2350
     31 H7         -7.0953    8.8029   -1.1363 H         1 <0>         0.1288
     32 H8         -9.4602    8.1429   -1.3073 H         1 <0>         0.1301
     33 H9        -10.2360    6.0546   -0.2612 H         1 <0>         0.1283
     34 H10        -8.6487    4.6160    0.9503 H         1 <0>         0.1334
     35 H11        -6.2799    5.2625    1.1189 H         1 <0>         0.1705
     36 H12         0.5291    7.7725    0.0642 H         1 <0>         0.2104
     37 H13        -1.0733    8.2774    0.0790 H         1 <0>         0.2286
     38 H14         2.7886    0.8963   -1.0532 H         1 <0>         0.1060
     39 H15         3.2207    1.6617    0.4946 H         1 <0>         0.1142
     40 H16         2.3717    0.0973    0.4817 H         1 <0>         0.0968
@<TRIPOS>BOND
     1    1    2 1
     2    1   25 1
     3    1   26 1
     4    1   27 1
     5    2    7 2
     6    2    3 1
     7    3    4 2
     8    3   28 1
     9    4    5 1
    10    4   24 1
    11    5   10 1
    12    5    6 1
    13    6    7 1
    14    6    8 2
    15    8    9 1
    16    8   11 1
    17    9   10 2
    18    9   29 1
    19   11   12 2
    20   11   23 1
    21   12   13 1
    22   13   14 1
    23   14   15 2
    24   14   16 am
    25   16   17 1
    26   16   30 1
    27   17   22 ar
    28   17   18 ar
    29   18   19 ar
    30   18   31 1
    31   19   20 ar
    32   19   32 1
    33   20   21 ar
    34   20   33 1
    35   21   22 ar
    36   21   34 1
    37   22   35 1
    38   23   36 1
    39   23   37 1
    40   24   38 1
    41   24   39 1
    42   24   40 1
@<TRIPOS>MOLECULE
ZINC03969632
   45    47     0     0     0
SMALL
USER_CHARGES

CORINA 3.20 0003  11.05.2005
@<TRIPOS>ATOM
      1 C1         -1.0796    6.1056    0.0718 C.3       1 <0>        -0.2049
      2 C2          0.2148    5.3350    0.0287 C.2       1 <0>         0.2222
      3 C3          1.4400    6.0217   -0.0294 C.2       1 <0>        -0.4171
      4 C4          1.4570    7.4278    0.0830 C.2       1 <0>         0.2889
      5 O1          0.4145    8.0344    0.2263 O.2       1 <0>        -0.3508
      6 C5          2.7606    8.1814    0.0322 C.3       1 <0>        -0.1941
      7 C6          3.7530    7.4158   -0.8465 C.3       1 <0>        -0.0590
      8 C7          3.9610    6.0144   -0.2668 C.3       1 <0>        -0.1955
      9 C8          2.6375    5.2973   -0.2052 C.2       1 <0>         0.2848
     10 O2          2.6014    4.0876   -0.3080 O.2       1 <0>        -0.3185
     11 C9          5.0894    8.1602   -0.8761 C.3       1 <0>        -0.2017
     12 C10         3.1985    7.3040   -2.2680 C.3       1 <0>        -0.2071
     13 N1          0.1981    4.0146    0.0455 N.2       1 <0>        -0.3501
     14 C11         0.3295    3.3582    1.2049 C.2       1 <0>         0.3194
     15 N2          0.5832    4.0508    2.3591 N.pl3     1 <0>        -0.4046
     16 N3          0.2132    2.0290    1.2361 N.2       1 <0>        -0.3118
     17 C12        -0.0325    1.3584    0.1184 C.2       1 <0>         0.3199
     18 N4         -0.1712    0.0098    0.0245 N.pl3     1 <0>        -0.2506
     19 H1         -0.1053   -0.6268    0.7534 H         1 <0>         0.2817
     20 C13        -0.4252   -0.2894   -1.3119 C.ar      1 <0>        -0.0314
     21 C14        -0.6491   -1.4755   -1.9948 C.ar      1 <0>        -0.1167
     22 C15        -0.8781   -1.4514   -3.3563 C.ar      1 <0>        -0.1141
     23 C16        -0.8846   -0.2476   -4.0401 C.ar      1 <0>        -0.1199
     24 C17        -0.6626    0.9376   -3.3674 C.ar      1 <0>        -0.0865
     25 C18        -0.4316    0.9244   -1.9998 C.ar      1 <0>         0.0086
     26 O3         -0.1891    1.9048   -1.0968 O.3       1 <0>        -0.0460
     27 H2         -1.9179    5.4105    0.0257 H         1 <0>         0.0793
     28 H3         -1.1317    6.6767    0.9988 H         1 <0>         0.1153
     29 H4         -1.1254    6.7869   -0.7778 H         1 <0>         0.1198
     30 H5          3.1672    8.2804    1.0387 H         1 <0>         0.1024
     31 H6          2.5898    9.1717   -0.3900 H         1 <0>         0.1090
     32 H7          4.3782    6.0944    0.7370 H         1 <0>         0.1009
     33 H8          4.6479    5.4560   -0.9027 H         1 <0>         0.1084
     34 H9          5.7971    7.6117   -1.4977 H         1 <0>         0.0764
     35 H10         4.9405    9.1580   -1.2890 H         1 <0>         0.0759
     36 H11         5.4827    8.2413    0.1372 H         1 <0>         0.0715
     37 H12         2.2455    6.7754   -2.2457 H         1 <0>         0.0909
     38 H13         3.0508    8.3023   -2.6800 H         1 <0>         0.0742
     39 H14         3.9042    6.7546   -2.8911 H         1 <0>         0.0756
     40 H15         0.7510    3.5714    3.1855 H         1 <0>         0.2311
     41 H16         0.5951    5.0207    2.3501 H         1 <0>         0.2403
     42 H17        -0.6440   -2.4155   -1.4632 H         1 <0>         0.1392
     43 H18        -1.0522   -2.3744   -3.8894 H         1 <0>         0.1429
     44 H19        -1.0646   -0.2354   -5.1049 H         1 <0>         0.1457
     45 H20        -0.6684    1.8739   -3.9056 H         1 <0>         0.1560
@<TRIPOS>BOND
     1    1    2 1
     2    1   27 1
     3    1   28 1
     4    1   29 1
     5    2    3 2
     6    2   13 1
     7    3    9 1
     8    3    4 1
     9    4    5 2
    10    4    6 1
    11    6    7 1
    12    6   30 1
    13    6   31 1
    14    7    8 1
    15    7   11 1
    16    7   12 1
    17    8    9 1
    18    8   32 1
    19    8   33 1
    20    9   10 2
    21   11   34 1
    22   11   35 1
    23   11   36 1
    24   12   37 1
    25   12   38 1
    26   12   39 1
    27   13   14 2
    28   14   15 1
    29   14   16 1
    30   15   40 1
    31   15   41 1
    32   16   17 2
    33   17   26 1
    34   17   18 1
    35   18   19 1
    36   18   20 1
    37   20   25 ar
    38   20   21 ar
    39   21   22 ar
    40   21   42 1
    41   22   23 ar
    42   22   43 1
    43   23   24 ar
    44   23   44 1
    45   24   25 ar
    46   24   45 1
    47   25   26 1
@<TRIPOS>MOLECULE
ZINC03971750
   40    42     0     0     0
SMALL
USER_CHARGES

CORINA 3.20 0003  11.05.2005
@<TRIPOS>ATOM
      1 C1         -4.2180    5.0388    0.0700 C.3       1 <0>        -0.1700
      2 C2         -3.1487    3.9769    0.0535 C.ar      1 <0>         0.0563
      3 C3         -1.8141    4.3541    0.0428 C.ar      1 <0>        -0.1935
      4 C4         -0.8432    3.3792    0.0283 C.ar      1 <0>        -0.0472
      5 C5         -1.2298    2.0332    0.0184 C.ar      1 <0>        -0.2393
      6 C6         -2.6013    1.7290    0.0362 C.ar      1 <0>        -0.0738
      7 N1         -3.4983    2.7059    0.0500 N.ar      1 <0>        -0.2071
      8 S1         -3.1303    0.0483    0.0316 S.3       1 <0>         0.3899
      9 C7         -4.9248    0.2835    0.0496 C.3       1 <0>        -0.2409
     10 C8         -5.6076   -1.0599    0.0484 C.2       1 <0>         0.0797
     11 N2         -4.9025   -2.1434    0.0357 N.2       1 <0>        -0.1453
     12 O1         -5.4543   -3.2292    0.0347 O.3       1 <0>        -0.1646
     13 C9         -4.6621   -4.3173    0.0212 C.2       1 <0>         0.3447
     14 O2         -3.4540   -4.1890    0.0107 O.2       1 <0>        -0.2947
     15 C10        -5.2616   -5.6675    0.0192 C.ar      1 <0>        -0.1064
     16 C11        -6.6496   -5.8186    0.0370 C.ar      1 <0>        -0.0858
     17 C12        -7.2028   -7.0822    0.0291 C.ar      1 <0>        -0.1439
     18 C13        -6.3854   -8.1986    0.0152 C.ar      1 <0>        -0.0983
     19 C14        -5.0092   -8.0561    0.0033 C.ar      1 <0>        -0.1410
     20 C15        -4.4428   -6.7983    0.0052 C.ar      1 <0>        -0.0621
     21 N3         -6.9811   -1.1334    0.0607 N.pl3     1 <0>        -0.4326
     22 C16        -0.0144    1.2111    0.0087 C.2       1 <0>         0.3585
     23 O3          0.0021   -0.0041    0.0020 O.2       1 <0>        -0.2690
     24 O4          1.0787    1.9946    0.0025 O.3       1 <0>        -0.2171
     25 C17         0.6618    3.3884    0.0140 C.3       1 <0>         0.0164
     26 H1         -4.4857    5.3007   -0.9537 H         1 <0>         0.0994
     27 H2         -5.0979    4.6603    0.5902 H         1 <0>         0.1016
     28 H3         -3.8437    5.9233    0.5853 H         1 <0>         0.0891
     29 H4         -1.5406    5.3989    0.0462 H         1 <0>         0.1431
     30 H5         -5.2100    0.8352    0.9454 H         1 <0>         0.1296
     31 H6         -5.2265    0.8452   -0.8345 H         1 <0>         0.1298
     32 H7         -7.2886   -4.9480    0.0523 H         1 <0>         0.1383
     33 H8         -8.2762   -7.2005    0.0383 H         1 <0>         0.1341
     34 H9         -6.8237   -9.1857    0.0140 H         1 <0>         0.1330
     35 H10        -4.3770   -8.9317   -0.0079 H         1 <0>         0.1389
     36 H11        -3.3684   -6.6885   -0.0038 H         1 <0>         0.1594
     37 H12        -7.5102   -0.3204    0.0702 H         1 <0>         0.2165
     38 H13        -7.4206   -1.9981    0.0599 H         1 <0>         0.2322
     39 H14         1.0417    3.8855    0.9066 H         1 <0>         0.1209
     40 H15         1.0255    3.8954   -0.8798 H         1 <0>         0.1211
@<TRIPOS>BOND
     1    1    2 1
     2    1   26 1
     3    1   27 1
     4    1   28 1
     5    2    7 ar
     6    2    3 ar
     7    3    4 ar
     8    3   29 1
     9    4   25 1
    10    4    5 ar
    11    5    6 ar
    12    5   22 1
    13    6    7 ar
    14    6    8 1
    15    8    9 1
    16    9   10 1
    17    9   30 1
    18    9   31 1
    19   10   11 2
    20   10   21 1
    21   11   12 1
    22   12   13 1
    23   13   14 2
    24   13   15 1
    25   15   20 ar
    26   15   16 ar
    27   16   17 ar
    28   16   32 1
    29   17   18 ar
    30   17   33 1
    31   18   19 ar
    32   18   34 1
    33   19   20 ar
    34   19   35 1
    35   20   36 1
    36   21   37 1
    37   21   38 1
    38   22   23 2
    39   22   24 1
    40   24   25 1
    41   25   39 1
    42   25   40 1
@<TRIPOS>MOLECULE
ZINC04436478
   39    41     0     0     0
SMALL
USER_CHARGES

CORINA 3.20 0003  11.05.2005
@<TRIPOS>ATOM
      1 C1        -14.4895    4.6047    0.1582 C.3       1 <0>        -0.0642
      2 O1        -13.3458    3.7480    0.1437 O.3       1 <0>        -0.2097
      3 C2        -12.1256    4.3476    0.1348 C.ar      1 <0>         0.0723
      4 C3        -12.0347    5.7371    0.1400 C.ar      1 <0>        -0.1681
      5 C4        -10.8056    6.3601    0.1316 C.ar      1 <0>        -0.1066
      6 C5         -9.6388    5.6043    0.1178 C.ar      1 <0>         0.0880
      7 C6         -9.7256    4.2009    0.1120 C.ar      1 <0>        -0.1087
      8 C7        -10.9805    3.5774    0.1211 C.ar      1 <0>        -0.1102
      9 C8         -8.5011    3.4007    0.0916 C.2       1 <0>        -0.0388
     10 C9         -7.2883    4.0646    0.0893 C.2       1 <0>        -0.1262
     11 C10        -7.2858    5.5317    0.0962 C.2       1 <0>         0.3471
     12 O2         -6.2268    6.1312    0.0893 O.2       1 <0>        -0.2296
     13 O3         -8.4367    6.2201    0.1096 O.3       1 <0>        -0.1652
     14 C11        -6.0201    3.3117    0.0741 C.2       1 <0>         0.0886
     15 N1         -4.8816    3.9506    0.0667 N.2       1 <0>        -0.0212
     16 N2         -3.6770    3.2354    0.0522 N.am      1 <0>        -0.3251
     17 C12        -2.5017    3.8950    0.0445 C.2       1 <0>         0.3572
     18 O4         -2.4868    5.1111    0.0502 O.2       1 <0>        -0.2996
     19 C13        -1.2286    3.1392    0.0293 C.ar      1 <0>        -0.0836
     20 C14        -1.2232    1.7406    0.0173 C.ar      1 <0>        -0.1761
     21 C15        -0.0126    1.0758    0.0080 C.ar      1 <0>        -0.0494
     22 N3          1.1253    1.7415    0.0007 N.ar      1 <0>        -0.1516
     23 C16         1.1651    3.0592    0.0069 C.ar      1 <0>        -0.0501
     24 C17         0.0019    3.8039    0.0211 C.ar      1 <0>        -0.1277
     25 N4         -6.0371    1.9222    0.0677 N.pl3     1 <0>        -0.4521
     26 H1        -15.3963    3.9999    0.1641 H         1 <0>         0.1135
     27 H2        -14.4638    5.2299    1.0507 H         1 <0>         0.0699
     28 H3        -14.4806    5.2376   -0.7292 H         1 <0>         0.0699
     29 H4        -12.9360    6.3321    0.1511 H         1 <0>         0.1470
     30 H5        -10.7485    7.4386    0.1361 H         1 <0>         0.1570
     31 H6        -11.0512    2.4998    0.1171 H         1 <0>         0.1513
     32 H7         -8.5432    2.3216    0.0823 H         1 <0>         0.1426
     33 H8         -3.6888    2.2655    0.0478 H         1 <0>         0.1974
     34 H9         -2.1515    1.1887    0.0191 H         1 <0>         0.1261
     35 H10         0.0021   -0.0041    0.0020 H         1 <0>         0.1609
     36 H11         2.1202    3.5633    0.0005 H         1 <0>         0.1672
     37 H12         0.0420    4.8831    0.0255 H         1 <0>         0.1675
     38 H13        -5.2031    1.4270    0.0577 H         1 <0>         0.2205
     39 H14        -6.8830    1.4475    0.0732 H         1 <0>         0.2197
@<TRIPOS>BOND
     1    1    2 1
     2    1   26 1
     3    1   27 1
     4    1   28 1
     5    2    3 1
     6    3    8 ar
     7    3    4 ar
     8    4    5 ar
     9    4   29 1
    10    5    6 ar
    11    5   30 1
    12    6   13 1
    13    6    7 ar
    14    7    8 ar
    15    7    9 1
    16    8   31 1
    17    9   10 2
    18    9   32 1
    19   10   11 1
    20   10   14 1
    21   11   12 2
    22   11   13 1
    23   14   15 2
    24   14   25 1
    25   15   16 1
    26   16   17 am
    27   16   33 1
    28   17   18 2
    29   17   19 1
    30   19   24 ar
    31   19   20 ar
    32   20   21 ar
    33   20   34 1
    34   21   22 ar
    35   21   35 1
    36   22   23 ar
    37   23   24 ar
    38   23   36 1
    39   24   37 1
    40   25   38 1
    41   25   39 1
